version 3
run Scenario4-2-20260627-16:40:44-6658
attr configname Scenario4
attr datetime 20260627-16:40:44
attr datetimef 20260627-164044
attr experiment Scenario4
attr inifile omnetpp.ini
attr iterationvars ""
attr iterationvarsd ""
attr iterationvarsf ""
attr measurement ""
attr network org.car2x.veins.nodes.Scenario
attr processid 6658
attr repetition 2
attr replication #2
attr resultdir results
attr runnumber 2
attr seedset 2
config image-path ../../../veins/images
config extends Scenario3
config *.manager.launchConfig "xmldoc(\"half_traffic.launchd.xml\")"
config description "Obstacle Shadowing (Buildings block signals)"
config *.annotations.draw true
config *.obstacles.obstacles "xmldoc(\"config_3.xml\", \"//AnalogueModel[@type='SimpleObstacleShadowing']/obstacles\")"
config *.**.nic.phy80211p.decider "xmldoc(\"config_3.xml\")"
config *.**.nic.phy80211p.analogueModels "xmldoc(\"config_3.xml\")"
config repeat 10
config seed-set 2
config network org.car2x.veins.nodes.Scenario
config sim-time-limit 100s
config *.playgroundSizeX 600m
config *.playgroundSizeY 600m
config *.playgroundSizeZ 50m
config *.manager.updateInterval 0.1s
config *.manager.host "\"localhost\""
config *.manager.port 9999
config *.manager.autoShutdown true
config *.manager.launchConfig "xmldoc(\"simulation.launchd.xml\")"
config *.node[*].veinsmobility.x 0
config *.node[*].veinsmobility.y 0
config *.node[*].veinsmobility.z 1.895
config *.node[*].applType "\"TraCIDemo11p\""
config *.node[*].appl.headerLength "80 bit"
config *.node[*].appl.sendBeacons true
config *.node[*].appl.dataOnSch false
config *.node[*].appl.beaconInterval 0.1s
config *.connectionManager.sendDirect true
config *.connectionManager.maxInterfDist 500m
config *.connectionManager.drawMaxIntfDist false
config *.**.nic.mac1609_4.useServiceChannel false
config *.**.nic.mac1609_4.txPower 20mW
config *.**.nic.mac1609_4.bitrate 6Mbps
config *.**.nic.phy80211p.minPowerLevel -110dBm
config *.**.nic.phy80211p.useNoiseFloor true
config *.**.nic.phy80211p.noiseFloor -98dBm
config *.**.nic.phy80211p.usePropagationDelay true
config **.vector-recording true
config **.scalar-recording true
config *.**.nic.phy80211p.*.vector-recording true
config *.**.nic.mac1609_4.*.vector-recording true
config **.rcvdPower:vector.vector-recording true
config **.snir:vector.vector-recording true

par Scenario.node[3].appl typename "\"org.car2x.veins.modules.application.traci.TraCIDemo11p\""
par Scenario.node[3].appl headerLength 80bit
attr unit bit
par Scenario.node[3].appl sendBeacons true
par Scenario.node[3].appl beaconLengthBits 256bit
attr unit bit
par Scenario.node[3].appl beaconUserPriority 7
par Scenario.node[3].appl beaconInterval 0.1s
attr unit s
par Scenario.node[3].appl dataLengthBits 1024bit
attr unit bit
par Scenario.node[3].appl dataOnSch false
par Scenario.node[3].appl dataUserPriority 7
par Scenario.node[3].appl avoidBeaconSynchronization true
par Scenario.node[3].appl sendWSA false
par Scenario.node[3].appl wsaLengthBits 250bit
attr unit bit
par Scenario.node[3].appl wsaInterval 1s
attr unit s
scalar Scenario.node[3].appl generatedWSMs 0
scalar Scenario.node[3].appl receivedWSMs 0
scalar Scenario.node[3].appl generatedBSMs 271
scalar Scenario.node[3].appl receivedBSMs 959
scalar Scenario.node[3].appl generatedWSAs 0
scalar Scenario.node[3].appl receivedWSAs 0
par Scenario.node[3].nic.phy80211p typename "\"org.car2x.veins.modules.phy.PhyLayer80211p\""
par Scenario.node[3].nic.phy80211p recordStats false
par Scenario.node[3].nic.phy80211p usePropagationDelay true
par Scenario.node[3].nic.phy80211p noiseFloor -98dBm
attr unit dBm
par Scenario.node[3].nic.phy80211p useNoiseFloor true
par Scenario.node[3].nic.phy80211p antenna "<root>...</root> at content:1"
par Scenario.node[3].nic.phy80211p antennaOffsetX 0m
attr unit m
par Scenario.node[3].nic.phy80211p antennaOffsetY 0m
attr unit m
par Scenario.node[3].nic.phy80211p antennaOffsetZ 1.895m
attr unit m
par Scenario.node[3].nic.phy80211p antennaOffsetYaw 0rad
attr unit rad
par Scenario.node[3].nic.phy80211p analogueModels "<root>...</root> at /home/vagrant/spe-homework-project/Project/simulations//config_3.xml:2"
par Scenario.node[3].nic.phy80211p decider "<root>...</root> at /home/vagrant/spe-homework-project/Project/simulations//config_3.xml:2"
par Scenario.node[3].nic.phy80211p minPowerLevel -110dBm
attr unit dBm
par Scenario.node[3].nic.phy80211p timeRXToTX 0s
attr unit s
par Scenario.node[3].nic.phy80211p timeRXToSleep 0s
attr unit s
par Scenario.node[3].nic.phy80211p timeTXToRX 0s
attr unit s
par Scenario.node[3].nic.phy80211p timeTXToSleep 0s
attr unit s
par Scenario.node[3].nic.phy80211p timeSleepToRX 0s
attr unit s
par Scenario.node[3].nic.phy80211p timeSleepToTX 0s
attr unit s
par Scenario.node[3].nic.phy80211p initialRadioState 0
par Scenario.node[3].nic.phy80211p radioMinAtt 1
par Scenario.node[3].nic.phy80211p radioMaxAtt 0
par Scenario.node[3].nic.phy80211p nbRadioChannels 1
par Scenario.node[3].nic.phy80211p initialRadioChannel 0
par Scenario.node[3].nic.phy80211p ccaThreshold -65dBm
attr unit dBm
par Scenario.node[3].nic.phy80211p collectCollisionStatistics false
par Scenario.node[3].nic.phy80211p allowTxDuringRx false
scalar Scenario.node[3].nic.phy80211p busyTime 0.0041408118081182
par Scenario.node[3].nic.mac1609_4 typename "\"org.car2x.veins.modules.mac.ieee80211p.Mac1609_4\""
par Scenario.node[3].nic.mac1609_4 notAffectedByHostState false
par Scenario.node[3].nic.mac1609_4 headerLength 0bit
attr unit bit
par Scenario.node[3].nic.mac1609_4 address "\"auto\""
par Scenario.node[3].nic.mac1609_4 useServiceChannel false
par Scenario.node[3].nic.mac1609_4 serviceChannel 1
par Scenario.node[3].nic.mac1609_4 bitrate 6000000bps
attr unit bps
par Scenario.node[3].nic.mac1609_4 syncOffset 0.0003s
attr unit s
par Scenario.node[3].nic.mac1609_4 txPower 20mW
attr unit mW
par Scenario.node[3].nic.mac1609_4 queueSize 0
par Scenario.node[3].nic.mac1609_4 dot11RTSThreshold 12000bit
attr unit bit
par Scenario.node[3].nic.mac1609_4 dot11ShortRetryLimit 7
par Scenario.node[3].nic.mac1609_4 dot11LongRetryLimit 4
par Scenario.node[3].nic.mac1609_4 ackLength 112bit
attr unit bit
par Scenario.node[3].nic.mac1609_4 useAcks false
par Scenario.node[3].nic.mac1609_4 frameErrorRate 0
par Scenario.node[3].nic.mac1609_4 ackErrorRate 0
scalar Scenario.node[3].nic.mac1609_4 ReceivedUnicastPackets 0
scalar Scenario.node[3].nic.mac1609_4 ReceivedBroadcasts 959
scalar Scenario.node[3].nic.mac1609_4 SentPackets 271
scalar Scenario.node[3].nic.mac1609_4 SentAcknowledgements 0
scalar Scenario.node[3].nic.mac1609_4 RetriesExceeded 0
scalar Scenario.node[3].nic.mac1609_4 SNIRLostPackets 120
scalar Scenario.node[3].nic.mac1609_4 RXTXLostPackets 0
scalar Scenario.node[3].nic.mac1609_4 TotalLostPackets 120
scalar Scenario.node[3].nic.mac1609_4 DroppedPacketsInMac 0
scalar Scenario.node[3].nic.mac1609_4 TooLittleTime 0
scalar Scenario.node[3].nic.mac1609_4 TimesIntoBackoff 271
scalar Scenario.node[3].nic.mac1609_4 SlotsBackoff 408
scalar Scenario.node[3].nic.mac1609_4 NumInternalContention 0
scalar Scenario.node[3].nic.mac1609_4 totalBusyTime 0.140671
scalar Scenario.node[3].nic.mac1609_4 retriesExceeded:count 0
attr recordingmode count
attr source org_car2x_veins_modules_mac_sigRetriesExceeded
scalar Scenario.node[3].nic.mac1609_4 sentAcks:count 0
attr recordingmode count
attr source org_car2x_veins_modules_mac_sigSentAck
scalar Scenario.node[3].nic.mac1609_4 sentPackets:count 271
attr recordingmode count
attr source org_car2x_veins_modules_mac_sigSentPacket
scalar Scenario.node[3].nic.mac1609_4 collisions:count 0
attr recordingmode count
attr source org_car2x_veins_modules_mac_sigCollision
scalar Scenario.node[3].nic.mac1609_4 channelBusy:timeavg 0.0051908118081182
attr recordingmode timeavg
attr source org_car2x_veins_modules_mac_sigChannelBusy
par Scenario.node[3].nic typename "\"org.car2x.veins.modules.nic.Nic80211p\""
par Scenario.node[3].nic connectionManagerName "\"connectionManager\""
par Scenario.node[3].veinsmobility typename "\"org.car2x.veins.modules.mobility.traci.TraCIMobility\""
par Scenario.node[3].veinsmobility notAffectedByHostState true
par Scenario.node[3].veinsmobility x 0
par Scenario.node[3].veinsmobility y 0
par Scenario.node[3].veinsmobility z 1.895
par Scenario.node[3].veinsmobility xOrientation 1
par Scenario.node[3].veinsmobility yOrientation 0
par Scenario.node[3].veinsmobility zOrientation 0
par Scenario.node[3].veinsmobility hostPositionOffset 0m
attr unit m
par Scenario.node[3].veinsmobility setHostSpeed false
par Scenario.node[3].veinsmobility accidentCount 0
par Scenario.node[3].veinsmobility accidentStart 32.7869s
attr unit s
par Scenario.node[3].veinsmobility accidentDuration "uniform(30s, 60s)"
attr unit s
par Scenario.node[3].veinsmobility accidentInterval "uniform(30s, 60s)"
attr unit s
scalar Scenario.node[3].veinsmobility startTime 6.1
scalar Scenario.node[3].veinsmobility totalTime 27
scalar Scenario.node[3].veinsmobility stopTime 33.2
scalar Scenario.node[3].veinsmobility minSpeed 0.25331873658695
scalar Scenario.node[3].veinsmobility maxSpeed 12.799520598422
scalar Scenario.node[3].veinsmobility totalDistance 278.68521294449
scalar Scenario.node[3].veinsmobility totalCO2Emission 84.758730191275
par Scenario.node[3] typename "\"org.car2x.veins.nodes.Car\""
par Scenario.node[3] applType "\"TraCIDemo11p\""
par Scenario.node[3] nicType "\"Nic80211p\""
par Scenario.node[3] veinsmobilityType "\"org.car2x.veins.modules.mobility.traci.TraCIMobility\""
par Scenario.node[0].appl typename "\"org.car2x.veins.modules.application.traci.TraCIDemo11p\""
par Scenario.node[0].appl headerLength 80bit
attr unit bit
par Scenario.node[0].appl sendBeacons true
par Scenario.node[0].appl beaconLengthBits 256bit
attr unit bit
par Scenario.node[0].appl beaconUserPriority 7
par Scenario.node[0].appl beaconInterval 0.1s
attr unit s
par Scenario.node[0].appl dataLengthBits 1024bit
attr unit bit
par Scenario.node[0].appl dataOnSch false
par Scenario.node[0].appl dataUserPriority 7
par Scenario.node[0].appl avoidBeaconSynchronization true
par Scenario.node[0].appl sendWSA false
par Scenario.node[0].appl wsaLengthBits 250bit
attr unit bit
par Scenario.node[0].appl wsaInterval 1s
attr unit s
scalar Scenario.node[0].appl generatedWSMs 0
scalar Scenario.node[0].appl receivedWSMs 0
scalar Scenario.node[0].appl generatedBSMs 513
scalar Scenario.node[0].appl receivedBSMs 1350
scalar Scenario.node[0].appl generatedWSAs 0
scalar Scenario.node[0].appl receivedWSAs 0
par Scenario.node[0].nic.phy80211p typename "\"org.car2x.veins.modules.phy.PhyLayer80211p\""
par Scenario.node[0].nic.phy80211p recordStats false
par Scenario.node[0].nic.phy80211p usePropagationDelay true
par Scenario.node[0].nic.phy80211p noiseFloor -98dBm
attr unit dBm
par Scenario.node[0].nic.phy80211p useNoiseFloor true
par Scenario.node[0].nic.phy80211p antenna "<root>...</root> at content:1"
par Scenario.node[0].nic.phy80211p antennaOffsetX 0m
attr unit m
par Scenario.node[0].nic.phy80211p antennaOffsetY 0m
attr unit m
par Scenario.node[0].nic.phy80211p antennaOffsetZ 1.895m
attr unit m
par Scenario.node[0].nic.phy80211p antennaOffsetYaw 0rad
attr unit rad
par Scenario.node[0].nic.phy80211p analogueModels "<root>...</root> at /home/vagrant/spe-homework-project/Project/simulations//config_3.xml:2"
par Scenario.node[0].nic.phy80211p decider "<root>...</root> at /home/vagrant/spe-homework-project/Project/simulations//config_3.xml:2"
par Scenario.node[0].nic.phy80211p minPowerLevel -110dBm
attr unit dBm
par Scenario.node[0].nic.phy80211p timeRXToTX 0s
attr unit s
par Scenario.node[0].nic.phy80211p timeRXToSleep 0s
attr unit s
par Scenario.node[0].nic.phy80211p timeTXToRX 0s
attr unit s
par Scenario.node[0].nic.phy80211p timeTXToSleep 0s
attr unit s
par Scenario.node[0].nic.phy80211p timeSleepToRX 0s
attr unit s
par Scenario.node[0].nic.phy80211p timeSleepToTX 0s
attr unit s
par Scenario.node[0].nic.phy80211p initialRadioState 0
par Scenario.node[0].nic.phy80211p radioMinAtt 1
par Scenario.node[0].nic.phy80211p radioMaxAtt 0
par Scenario.node[0].nic.phy80211p nbRadioChannels 1
par Scenario.node[0].nic.phy80211p initialRadioChannel 0
par Scenario.node[0].nic.phy80211p ccaThreshold -65dBm
attr unit dBm
par Scenario.node[0].nic.phy80211p collectCollisionStatistics false
par Scenario.node[0].nic.phy80211p allowTxDuringRx false
scalar Scenario.node[0].nic.phy80211p busyTime 0.0031666276803119
par Scenario.node[0].nic.mac1609_4 typename "\"org.car2x.veins.modules.mac.ieee80211p.Mac1609_4\""
par Scenario.node[0].nic.mac1609_4 notAffectedByHostState false
par Scenario.node[0].nic.mac1609_4 headerLength 0bit
attr unit bit
par Scenario.node[0].nic.mac1609_4 address "\"auto\""
par Scenario.node[0].nic.mac1609_4 useServiceChannel false
par Scenario.node[0].nic.mac1609_4 serviceChannel 1
par Scenario.node[0].nic.mac1609_4 bitrate 6000000bps
attr unit bps
par Scenario.node[0].nic.mac1609_4 syncOffset 0.0003s
attr unit s
par Scenario.node[0].nic.mac1609_4 txPower 20mW
attr unit mW
par Scenario.node[0].nic.mac1609_4 queueSize 0
par Scenario.node[0].nic.mac1609_4 dot11RTSThreshold 12000bit
attr unit bit
par Scenario.node[0].nic.mac1609_4 dot11ShortRetryLimit 7
par Scenario.node[0].nic.mac1609_4 dot11LongRetryLimit 4
par Scenario.node[0].nic.mac1609_4 ackLength 112bit
attr unit bit
par Scenario.node[0].nic.mac1609_4 useAcks false
par Scenario.node[0].nic.mac1609_4 frameErrorRate 0
par Scenario.node[0].nic.mac1609_4 ackErrorRate 0
scalar Scenario.node[0].nic.mac1609_4 ReceivedUnicastPackets 0
scalar Scenario.node[0].nic.mac1609_4 ReceivedBroadcasts 1350
scalar Scenario.node[0].nic.mac1609_4 SentPackets 513
scalar Scenario.node[0].nic.mac1609_4 SentAcknowledgements 0
scalar Scenario.node[0].nic.mac1609_4 RetriesExceeded 0
scalar Scenario.node[0].nic.mac1609_4 SNIRLostPackets 212
scalar Scenario.node[0].nic.mac1609_4 RXTXLostPackets 0
scalar Scenario.node[0].nic.mac1609_4 TotalLostPackets 212
scalar Scenario.node[0].nic.mac1609_4 DroppedPacketsInMac 0
scalar Scenario.node[0].nic.mac1609_4 TooLittleTime 0
scalar Scenario.node[0].nic.mac1609_4 TimesIntoBackoff 513
scalar Scenario.node[0].nic.mac1609_4 SlotsBackoff 805
scalar Scenario.node[0].nic.mac1609_4 NumInternalContention 0
scalar Scenario.node[0].nic.mac1609_4 totalBusyTime 0.216313
scalar Scenario.node[0].nic.mac1609_4 retriesExceeded:count 0
attr recordingmode count
attr source org_car2x_veins_modules_mac_sigRetriesExceeded
scalar Scenario.node[0].nic.mac1609_4 sentAcks:count 0
attr recordingmode count
attr source org_car2x_veins_modules_mac_sigSentAck
scalar Scenario.node[0].nic.mac1609_4 sentPackets:count 513
attr recordingmode count
attr source org_car2x_veins_modules_mac_sigSentPacket
scalar Scenario.node[0].nic.mac1609_4 collisions:count 0
attr recordingmode count
attr source org_car2x_veins_modules_mac_sigCollision
scalar Scenario.node[0].nic.mac1609_4 channelBusy:timeavg 0.0042166276803118
attr recordingmode timeavg
attr source org_car2x_veins_modules_mac_sigChannelBusy
par Scenario.node[0].nic typename "\"org.car2x.veins.modules.nic.Nic80211p\""
par Scenario.node[0].nic connectionManagerName "\"connectionManager\""
par Scenario.node[0].veinsmobility typename "\"org.car2x.veins.modules.mobility.traci.TraCIMobility\""
par Scenario.node[0].veinsmobility notAffectedByHostState true
par Scenario.node[0].veinsmobility x 0
par Scenario.node[0].veinsmobility y 0
par Scenario.node[0].veinsmobility z 1.895
par Scenario.node[0].veinsmobility xOrientation 1
par Scenario.node[0].veinsmobility yOrientation 0
par Scenario.node[0].veinsmobility zOrientation 0
par Scenario.node[0].veinsmobility hostPositionOffset 0m
attr unit m
par Scenario.node[0].veinsmobility setHostSpeed false
par Scenario.node[0].veinsmobility accidentCount 0
par Scenario.node[0].veinsmobility accidentStart 43.0798s
attr unit s
par Scenario.node[0].veinsmobility accidentDuration "uniform(30s, 60s)"
attr unit s
par Scenario.node[0].veinsmobility accidentInterval "uniform(30s, 60s)"
attr unit s
scalar Scenario.node[0].veinsmobility startTime 0.1
scalar Scenario.node[0].veinsmobility totalTime 51.2
scalar Scenario.node[0].veinsmobility stopTime 51.4
scalar Scenario.node[0].veinsmobility minSpeed 0.24877112020156
scalar Scenario.node[0].veinsmobility maxSpeed 13.520997943567
scalar Scenario.node[0].veinsmobility totalDistance 570.35772515717
scalar Scenario.node[0].veinsmobility totalCO2Emission 159.34923950297
par Scenario.node[0] typename "\"org.car2x.veins.nodes.Car\""
par Scenario.node[0] applType "\"TraCIDemo11p\""
par Scenario.node[0] nicType "\"Nic80211p\""
par Scenario.node[0] veinsmobilityType "\"org.car2x.veins.modules.mobility.traci.TraCIMobility\""
par Scenario.node[5].appl typename "\"org.car2x.veins.modules.application.traci.TraCIDemo11p\""
par Scenario.node[5].appl headerLength 80bit
attr unit bit
par Scenario.node[5].appl sendBeacons true
par Scenario.node[5].appl beaconLengthBits 256bit
attr unit bit
par Scenario.node[5].appl beaconUserPriority 7
par Scenario.node[5].appl beaconInterval 0.1s
attr unit s
par Scenario.node[5].appl dataLengthBits 1024bit
attr unit bit
par Scenario.node[5].appl dataOnSch false
par Scenario.node[5].appl dataUserPriority 7
par Scenario.node[5].appl avoidBeaconSynchronization true
par Scenario.node[5].appl sendWSA false
par Scenario.node[5].appl wsaLengthBits 250bit
attr unit bit
par Scenario.node[5].appl wsaInterval 1s
attr unit s
scalar Scenario.node[5].appl generatedWSMs 0
scalar Scenario.node[5].appl receivedWSMs 0
scalar Scenario.node[5].appl generatedBSMs 460
scalar Scenario.node[5].appl receivedBSMs 3375
scalar Scenario.node[5].appl generatedWSAs 0
scalar Scenario.node[5].appl receivedWSAs 0
par Scenario.node[5].nic.phy80211p typename "\"org.car2x.veins.modules.phy.PhyLayer80211p\""
par Scenario.node[5].nic.phy80211p recordStats false
par Scenario.node[5].nic.phy80211p usePropagationDelay true
par Scenario.node[5].nic.phy80211p noiseFloor -98dBm
attr unit dBm
par Scenario.node[5].nic.phy80211p useNoiseFloor true
par Scenario.node[5].nic.phy80211p antenna "<root>...</root> at content:1"
par Scenario.node[5].nic.phy80211p antennaOffsetX 0m
attr unit m
par Scenario.node[5].nic.phy80211p antennaOffsetY 0m
attr unit m
par Scenario.node[5].nic.phy80211p antennaOffsetZ 1.895m
attr unit m
par Scenario.node[5].nic.phy80211p antennaOffsetYaw 0rad
attr unit rad
par Scenario.node[5].nic.phy80211p analogueModels "<root>...</root> at /home/vagrant/spe-homework-project/Project/simulations//config_3.xml:2"
par Scenario.node[5].nic.phy80211p decider "<root>...</root> at /home/vagrant/spe-homework-project/Project/simulations//config_3.xml:2"
par Scenario.node[5].nic.phy80211p minPowerLevel -110dBm
attr unit dBm
par Scenario.node[5].nic.phy80211p timeRXToTX 0s
attr unit s
par Scenario.node[5].nic.phy80211p timeRXToSleep 0s
attr unit s
par Scenario.node[5].nic.phy80211p timeTXToRX 0s
attr unit s
par Scenario.node[5].nic.phy80211p timeTXToSleep 0s
attr unit s
par Scenario.node[5].nic.phy80211p timeSleepToRX 0s
attr unit s
par Scenario.node[5].nic.phy80211p timeSleepToTX 0s
attr unit s
par Scenario.node[5].nic.phy80211p initialRadioState 0
par Scenario.node[5].nic.phy80211p radioMinAtt 1
par Scenario.node[5].nic.phy80211p radioMaxAtt 0
par Scenario.node[5].nic.phy80211p nbRadioChannels 1
par Scenario.node[5].nic.phy80211p initialRadioChannel 0
par Scenario.node[5].nic.phy80211p ccaThreshold -65dBm
attr unit dBm
par Scenario.node[5].nic.phy80211p collectCollisionStatistics false
par Scenario.node[5].nic.phy80211p allowTxDuringRx false
scalar Scenario.node[5].nic.phy80211p busyTime 0.0084239999999997
par Scenario.node[5].nic.mac1609_4 typename "\"org.car2x.veins.modules.mac.ieee80211p.Mac1609_4\""
par Scenario.node[5].nic.mac1609_4 notAffectedByHostState false
par Scenario.node[5].nic.mac1609_4 headerLength 0bit
attr unit bit
par Scenario.node[5].nic.mac1609_4 address "\"auto\""
par Scenario.node[5].nic.mac1609_4 useServiceChannel false
par Scenario.node[5].nic.mac1609_4 serviceChannel 1
par Scenario.node[5].nic.mac1609_4 bitrate 6000000bps
attr unit bps
par Scenario.node[5].nic.mac1609_4 syncOffset 0.0003s
attr unit s
par Scenario.node[5].nic.mac1609_4 txPower 20mW
attr unit mW
par Scenario.node[5].nic.mac1609_4 queueSize 0
par Scenario.node[5].nic.mac1609_4 dot11RTSThreshold 12000bit
attr unit bit
par Scenario.node[5].nic.mac1609_4 dot11ShortRetryLimit 7
par Scenario.node[5].nic.mac1609_4 dot11LongRetryLimit 4
par Scenario.node[5].nic.mac1609_4 ackLength 112bit
attr unit bit
par Scenario.node[5].nic.mac1609_4 useAcks false
par Scenario.node[5].nic.mac1609_4 frameErrorRate 0
par Scenario.node[5].nic.mac1609_4 ackErrorRate 0
scalar Scenario.node[5].nic.mac1609_4 ReceivedUnicastPackets 0
scalar Scenario.node[5].nic.mac1609_4 ReceivedBroadcasts 3375
scalar Scenario.node[5].nic.mac1609_4 SentPackets 460
scalar Scenario.node[5].nic.mac1609_4 SentAcknowledgements 0
scalar Scenario.node[5].nic.mac1609_4 RetriesExceeded 0
scalar Scenario.node[5].nic.mac1609_4 SNIRLostPackets 351
scalar Scenario.node[5].nic.mac1609_4 RXTXLostPackets 0
scalar Scenario.node[5].nic.mac1609_4 TotalLostPackets 351
scalar Scenario.node[5].nic.mac1609_4 DroppedPacketsInMac 0
scalar Scenario.node[5].nic.mac1609_4 TooLittleTime 0
scalar Scenario.node[5].nic.mac1609_4 TimesIntoBackoff 460
scalar Scenario.node[5].nic.mac1609_4 SlotsBackoff 656
scalar Scenario.node[5].nic.mac1609_4 NumInternalContention 0
scalar Scenario.node[5].nic.mac1609_4 totalBusyTime 0.435804
scalar Scenario.node[5].nic.mac1609_4 retriesExceeded:count 0
attr recordingmode count
attr source org_car2x_veins_modules_mac_sigRetriesExceeded
scalar Scenario.node[5].nic.mac1609_4 sentAcks:count 0
attr recordingmode count
attr source org_car2x_veins_modules_mac_sigSentAck
scalar Scenario.node[5].nic.mac1609_4 sentPackets:count 460
attr recordingmode count
attr source org_car2x_veins_modules_mac_sigSentPacket
scalar Scenario.node[5].nic.mac1609_4 collisions:count 0
attr recordingmode count
attr source org_car2x_veins_modules_mac_sigCollision
scalar Scenario.node[5].nic.mac1609_4 channelBusy:timeavg 0.0094739999999997
attr recordingmode timeavg
attr source org_car2x_veins_modules_mac_sigChannelBusy
par Scenario.node[5].nic typename "\"org.car2x.veins.modules.nic.Nic80211p\""
par Scenario.node[5].nic connectionManagerName "\"connectionManager\""
par Scenario.node[5].veinsmobility typename "\"org.car2x.veins.modules.mobility.traci.TraCIMobility\""
par Scenario.node[5].veinsmobility notAffectedByHostState true
par Scenario.node[5].veinsmobility x 0
par Scenario.node[5].veinsmobility y 0
par Scenario.node[5].veinsmobility z 1.895
par Scenario.node[5].veinsmobility xOrientation 1
par Scenario.node[5].veinsmobility yOrientation 0
par Scenario.node[5].veinsmobility zOrientation 0
par Scenario.node[5].veinsmobility hostPositionOffset 0m
attr unit m
par Scenario.node[5].veinsmobility setHostSpeed false
par Scenario.node[5].veinsmobility accidentCount 0
par Scenario.node[5].veinsmobility accidentStart 38.3798s
attr unit s
par Scenario.node[5].veinsmobility accidentDuration "uniform(30s, 60s)"
attr unit s
par Scenario.node[5].veinsmobility accidentInterval "uniform(30s, 60s)"
attr unit s
scalar Scenario.node[5].veinsmobility startTime 10.1
scalar Scenario.node[5].veinsmobility totalTime 45.9
scalar Scenario.node[5].veinsmobility stopTime 56.1
scalar Scenario.node[5].veinsmobility minSpeed 0
scalar Scenario.node[5].veinsmobility maxSpeed 12.544820146603
scalar Scenario.node[5].veinsmobility totalDistance 422.38998453362
scalar Scenario.node[5].veinsmobility totalCO2Emission 137.47383546956
par Scenario.node[5] typename "\"org.car2x.veins.nodes.Car\""
par Scenario.node[5] applType "\"TraCIDemo11p\""
par Scenario.node[5] nicType "\"Nic80211p\""
par Scenario.node[5] veinsmobilityType "\"org.car2x.veins.modules.mobility.traci.TraCIMobility\""
par Scenario.node[1].appl typename "\"org.car2x.veins.modules.application.traci.TraCIDemo11p\""
par Scenario.node[1].appl headerLength 80bit
attr unit bit
par Scenario.node[1].appl sendBeacons true
par Scenario.node[1].appl beaconLengthBits 256bit
attr unit bit
par Scenario.node[1].appl beaconUserPriority 7
par Scenario.node[1].appl beaconInterval 0.1s
attr unit s
par Scenario.node[1].appl dataLengthBits 1024bit
attr unit bit
par Scenario.node[1].appl dataOnSch false
par Scenario.node[1].appl dataUserPriority 7
par Scenario.node[1].appl avoidBeaconSynchronization true
par Scenario.node[1].appl sendWSA false
par Scenario.node[1].appl wsaLengthBits 250bit
attr unit bit
par Scenario.node[1].appl wsaInterval 1s
attr unit s
scalar Scenario.node[1].appl generatedWSMs 0
scalar Scenario.node[1].appl receivedWSMs 0
scalar Scenario.node[1].appl generatedBSMs 555
scalar Scenario.node[1].appl receivedBSMs 3197
scalar Scenario.node[1].appl generatedWSAs 0
scalar Scenario.node[1].appl receivedWSAs 0
par Scenario.node[1].nic.phy80211p typename "\"org.car2x.veins.modules.phy.PhyLayer80211p\""
par Scenario.node[1].nic.phy80211p recordStats false
par Scenario.node[1].nic.phy80211p usePropagationDelay true
par Scenario.node[1].nic.phy80211p noiseFloor -98dBm
attr unit dBm
par Scenario.node[1].nic.phy80211p useNoiseFloor true
par Scenario.node[1].nic.phy80211p antenna "<root>...</root> at content:1"
par Scenario.node[1].nic.phy80211p antennaOffsetX 0m
attr unit m
par Scenario.node[1].nic.phy80211p antennaOffsetY 0m
attr unit m
par Scenario.node[1].nic.phy80211p antennaOffsetZ 1.895m
attr unit m
par Scenario.node[1].nic.phy80211p antennaOffsetYaw 0rad
attr unit rad
par Scenario.node[1].nic.phy80211p analogueModels "<root>...</root> at /home/vagrant/spe-homework-project/Project/simulations//config_3.xml:2"
par Scenario.node[1].nic.phy80211p decider "<root>...</root> at /home/vagrant/spe-homework-project/Project/simulations//config_3.xml:2"
par Scenario.node[1].nic.phy80211p minPowerLevel -110dBm
attr unit dBm
par Scenario.node[1].nic.phy80211p timeRXToTX 0s
attr unit s
par Scenario.node[1].nic.phy80211p timeRXToSleep 0s
attr unit s
par Scenario.node[1].nic.phy80211p timeTXToRX 0s
attr unit s
par Scenario.node[1].nic.phy80211p timeTXToSleep 0s
attr unit s
par Scenario.node[1].nic.phy80211p timeSleepToRX 0s
attr unit s
par Scenario.node[1].nic.phy80211p timeSleepToTX 0s
attr unit s
par Scenario.node[1].nic.phy80211p initialRadioState 0
par Scenario.node[1].nic.phy80211p radioMinAtt 1
par Scenario.node[1].nic.phy80211p radioMaxAtt 0
par Scenario.node[1].nic.phy80211p nbRadioChannels 1
par Scenario.node[1].nic.phy80211p initialRadioChannel 0
par Scenario.node[1].nic.phy80211p ccaThreshold -65dBm
attr unit dBm
par Scenario.node[1].nic.phy80211p collectCollisionStatistics false
par Scenario.node[1].nic.phy80211p allowTxDuringRx false
scalar Scenario.node[1].nic.phy80211p busyTime 0.0066166486486484
par Scenario.node[1].nic.mac1609_4 typename "\"org.car2x.veins.modules.mac.ieee80211p.Mac1609_4\""
par Scenario.node[1].nic.mac1609_4 notAffectedByHostState false
par Scenario.node[1].nic.mac1609_4 headerLength 0bit
attr unit bit
par Scenario.node[1].nic.mac1609_4 address "\"auto\""
par Scenario.node[1].nic.mac1609_4 useServiceChannel false
par Scenario.node[1].nic.mac1609_4 serviceChannel 1
par Scenario.node[1].nic.mac1609_4 bitrate 6000000bps
attr unit bps
par Scenario.node[1].nic.mac1609_4 syncOffset 0.0003s
attr unit s
par Scenario.node[1].nic.mac1609_4 txPower 20mW
attr unit mW
par Scenario.node[1].nic.mac1609_4 queueSize 0
par Scenario.node[1].nic.mac1609_4 dot11RTSThreshold 12000bit
attr unit bit
par Scenario.node[1].nic.mac1609_4 dot11ShortRetryLimit 7
par Scenario.node[1].nic.mac1609_4 dot11LongRetryLimit 4
par Scenario.node[1].nic.mac1609_4 ackLength 112bit
attr unit bit
par Scenario.node[1].nic.mac1609_4 useAcks false
par Scenario.node[1].nic.mac1609_4 frameErrorRate 0
par Scenario.node[1].nic.mac1609_4 ackErrorRate 0
scalar Scenario.node[1].nic.mac1609_4 ReceivedUnicastPackets 0
scalar Scenario.node[1].nic.mac1609_4 ReceivedBroadcasts 3197
scalar Scenario.node[1].nic.mac1609_4 SentPackets 555
scalar Scenario.node[1].nic.mac1609_4 SentAcknowledgements 0
scalar Scenario.node[1].nic.mac1609_4 RetriesExceeded 0
scalar Scenario.node[1].nic.mac1609_4 SNIRLostPackets 334
scalar Scenario.node[1].nic.mac1609_4 RXTXLostPackets 0
scalar Scenario.node[1].nic.mac1609_4 TotalLostPackets 334
scalar Scenario.node[1].nic.mac1609_4 DroppedPacketsInMac 0
scalar Scenario.node[1].nic.mac1609_4 TooLittleTime 0
scalar Scenario.node[1].nic.mac1609_4 TimesIntoBackoff 555
scalar Scenario.node[1].nic.mac1609_4 SlotsBackoff 813
scalar Scenario.node[1].nic.mac1609_4 NumInternalContention 0
scalar Scenario.node[1].nic.mac1609_4 totalBusyTime 0.425291
scalar Scenario.node[1].nic.mac1609_4 retriesExceeded:count 0
attr recordingmode count
attr source org_car2x_veins_modules_mac_sigRetriesExceeded
scalar Scenario.node[1].nic.mac1609_4 sentAcks:count 0
attr recordingmode count
attr source org_car2x_veins_modules_mac_sigSentAck
scalar Scenario.node[1].nic.mac1609_4 sentPackets:count 555
attr recordingmode count
attr source org_car2x_veins_modules_mac_sigSentPacket
scalar Scenario.node[1].nic.mac1609_4 collisions:count 0
attr recordingmode count
attr source org_car2x_veins_modules_mac_sigCollision
scalar Scenario.node[1].nic.mac1609_4 channelBusy:timeavg 0.0076629009009007
attr recordingmode timeavg
attr source org_car2x_veins_modules_mac_sigChannelBusy
par Scenario.node[1].nic typename "\"org.car2x.veins.modules.nic.Nic80211p\""
par Scenario.node[1].nic connectionManagerName "\"connectionManager\""
par Scenario.node[1].veinsmobility typename "\"org.car2x.veins.modules.mobility.traci.TraCIMobility\""
par Scenario.node[1].veinsmobility notAffectedByHostState true
par Scenario.node[1].veinsmobility x 0
par Scenario.node[1].veinsmobility y 0
par Scenario.node[1].veinsmobility z 1.895
par Scenario.node[1].veinsmobility xOrientation 1
par Scenario.node[1].veinsmobility yOrientation 0
par Scenario.node[1].veinsmobility zOrientation 0
par Scenario.node[1].veinsmobility hostPositionOffset 0m
attr unit m
par Scenario.node[1].veinsmobility setHostSpeed false
par Scenario.node[1].veinsmobility accidentCount 0
par Scenario.node[1].veinsmobility accidentStart 44.9568s
attr unit s
par Scenario.node[1].veinsmobility accidentDuration "uniform(30s, 60s)"
attr unit s
par Scenario.node[1].veinsmobility accidentInterval "uniform(30s, 60s)"
attr unit s
scalar Scenario.node[1].veinsmobility startTime 2.1
scalar Scenario.node[1].veinsmobility totalTime 55.4
scalar Scenario.node[1].veinsmobility stopTime 57.6
scalar Scenario.node[1].veinsmobility minSpeed 0.25628130026674
scalar Scenario.node[1].veinsmobility maxSpeed 13.9885844484
scalar Scenario.node[1].veinsmobility totalDistance 576.72946137705
scalar Scenario.node[1].veinsmobility totalCO2Emission 170.00586143251
par Scenario.node[1] typename "\"org.car2x.veins.nodes.Car\""
par Scenario.node[1] applType "\"TraCIDemo11p\""
par Scenario.node[1] nicType "\"Nic80211p\""
par Scenario.node[1] veinsmobilityType "\"org.car2x.veins.modules.mobility.traci.TraCIMobility\""
par Scenario.node[9].appl typename "\"org.car2x.veins.modules.application.traci.TraCIDemo11p\""
par Scenario.node[9].appl headerLength 80bit
attr unit bit
par Scenario.node[9].appl sendBeacons true
par Scenario.node[9].appl beaconLengthBits 256bit
attr unit bit
par Scenario.node[9].appl beaconUserPriority 7
par Scenario.node[9].appl beaconInterval 0.1s
attr unit s
par Scenario.node[9].appl dataLengthBits 1024bit
attr unit bit
par Scenario.node[9].appl dataOnSch false
par Scenario.node[9].appl dataUserPriority 7
par Scenario.node[9].appl avoidBeaconSynchronization true
par Scenario.node[9].appl sendWSA false
par Scenario.node[9].appl wsaLengthBits 250bit
attr unit bit
par Scenario.node[9].appl wsaInterval 1s
attr unit s
scalar Scenario.node[9].appl generatedWSMs 0
scalar Scenario.node[9].appl receivedWSMs 0
scalar Scenario.node[9].appl generatedBSMs 405
scalar Scenario.node[9].appl receivedBSMs 3113
scalar Scenario.node[9].appl generatedWSAs 0
scalar Scenario.node[9].appl receivedWSAs 0
par Scenario.node[9].nic.phy80211p typename "\"org.car2x.veins.modules.phy.PhyLayer80211p\""
par Scenario.node[9].nic.phy80211p recordStats false
par Scenario.node[9].nic.phy80211p usePropagationDelay true
par Scenario.node[9].nic.phy80211p noiseFloor -98dBm
attr unit dBm
par Scenario.node[9].nic.phy80211p useNoiseFloor true
par Scenario.node[9].nic.phy80211p antenna "<root>...</root> at content:1"
par Scenario.node[9].nic.phy80211p antennaOffsetX 0m
attr unit m
par Scenario.node[9].nic.phy80211p antennaOffsetY 0m
attr unit m
par Scenario.node[9].nic.phy80211p antennaOffsetZ 1.895m
attr unit m
par Scenario.node[9].nic.phy80211p antennaOffsetYaw 0rad
attr unit rad
par Scenario.node[9].nic.phy80211p analogueModels "<root>...</root> at /home/vagrant/spe-homework-project/Project/simulations//config_3.xml:2"
par Scenario.node[9].nic.phy80211p decider "<root>...</root> at /home/vagrant/spe-homework-project/Project/simulations//config_3.xml:2"
par Scenario.node[9].nic.phy80211p minPowerLevel -110dBm
attr unit dBm
par Scenario.node[9].nic.phy80211p timeRXToTX 0s
attr unit s
par Scenario.node[9].nic.phy80211p timeRXToSleep 0s
attr unit s
par Scenario.node[9].nic.phy80211p timeTXToRX 0s
attr unit s
par Scenario.node[9].nic.phy80211p timeTXToSleep 0s
attr unit s
par Scenario.node[9].nic.phy80211p timeSleepToRX 0s
attr unit s
par Scenario.node[9].nic.phy80211p timeSleepToTX 0s
attr unit s
par Scenario.node[9].nic.phy80211p initialRadioState 0
par Scenario.node[9].nic.phy80211p radioMinAtt 1
par Scenario.node[9].nic.phy80211p radioMaxAtt 0
par Scenario.node[9].nic.phy80211p nbRadioChannels 1
par Scenario.node[9].nic.phy80211p initialRadioChannel 0
par Scenario.node[9].nic.phy80211p ccaThreshold -65dBm
attr unit dBm
par Scenario.node[9].nic.phy80211p collectCollisionStatistics false
par Scenario.node[9].nic.phy80211p allowTxDuringRx false
scalar Scenario.node[9].nic.phy80211p busyTime 0.00897224691358
par Scenario.node[9].nic.mac1609_4 typename "\"org.car2x.veins.modules.mac.ieee80211p.Mac1609_4\""
par Scenario.node[9].nic.mac1609_4 notAffectedByHostState false
par Scenario.node[9].nic.mac1609_4 headerLength 0bit
attr unit bit
par Scenario.node[9].nic.mac1609_4 address "\"auto\""
par Scenario.node[9].nic.mac1609_4 useServiceChannel false
par Scenario.node[9].nic.mac1609_4 serviceChannel 1
par Scenario.node[9].nic.mac1609_4 bitrate 6000000bps
attr unit bps
par Scenario.node[9].nic.mac1609_4 syncOffset 0.0003s
attr unit s
par Scenario.node[9].nic.mac1609_4 txPower 20mW
attr unit mW
par Scenario.node[9].nic.mac1609_4 queueSize 0
par Scenario.node[9].nic.mac1609_4 dot11RTSThreshold 12000bit
attr unit bit
par Scenario.node[9].nic.mac1609_4 dot11ShortRetryLimit 7
par Scenario.node[9].nic.mac1609_4 dot11LongRetryLimit 4
par Scenario.node[9].nic.mac1609_4 ackLength 112bit
attr unit bit
par Scenario.node[9].nic.mac1609_4 useAcks false
par Scenario.node[9].nic.mac1609_4 frameErrorRate 0
par Scenario.node[9].nic.mac1609_4 ackErrorRate 0
scalar Scenario.node[9].nic.mac1609_4 ReceivedUnicastPackets 0
scalar Scenario.node[9].nic.mac1609_4 ReceivedBroadcasts 3113
scalar Scenario.node[9].nic.mac1609_4 SentPackets 405
scalar Scenario.node[9].nic.mac1609_4 SentAcknowledgements 0
scalar Scenario.node[9].nic.mac1609_4 RetriesExceeded 0
scalar Scenario.node[9].nic.mac1609_4 SNIRLostPackets 381
scalar Scenario.node[9].nic.mac1609_4 RXTXLostPackets 0
scalar Scenario.node[9].nic.mac1609_4 TotalLostPackets 381
scalar Scenario.node[9].nic.mac1609_4 DroppedPacketsInMac 0
scalar Scenario.node[9].nic.mac1609_4 TooLittleTime 0
scalar Scenario.node[9].nic.mac1609_4 TimesIntoBackoff 405
scalar Scenario.node[9].nic.mac1609_4 SlotsBackoff 613
scalar Scenario.node[9].nic.mac1609_4 NumInternalContention 0
scalar Scenario.node[9].nic.mac1609_4 totalBusyTime 0.402781
scalar Scenario.node[9].nic.mac1609_4 retriesExceeded:count 0
attr recordingmode count
attr source org_car2x_veins_modules_mac_sigRetriesExceeded
scalar Scenario.node[9].nic.mac1609_4 sentAcks:count 0
attr recordingmode count
attr source org_car2x_veins_modules_mac_sigSentAck
scalar Scenario.node[9].nic.mac1609_4 sentPackets:count 405
attr recordingmode count
attr source org_car2x_veins_modules_mac_sigSentPacket
scalar Scenario.node[9].nic.mac1609_4 collisions:count 0
attr recordingmode count
attr source org_car2x_veins_modules_mac_sigCollision
scalar Scenario.node[9].nic.mac1609_4 channelBusy:timeavg 0.0099452098765429
attr recordingmode timeavg
attr source org_car2x_veins_modules_mac_sigChannelBusy
par Scenario.node[9].nic typename "\"org.car2x.veins.modules.nic.Nic80211p\""
par Scenario.node[9].nic connectionManagerName "\"connectionManager\""
par Scenario.node[9].veinsmobility typename "\"org.car2x.veins.modules.mobility.traci.TraCIMobility\""
par Scenario.node[9].veinsmobility notAffectedByHostState true
par Scenario.node[9].veinsmobility x 0
par Scenario.node[9].veinsmobility y 0
par Scenario.node[9].veinsmobility z 1.895
par Scenario.node[9].veinsmobility xOrientation 1
par Scenario.node[9].veinsmobility yOrientation 0
par Scenario.node[9].veinsmobility zOrientation 0
par Scenario.node[9].veinsmobility hostPositionOffset 0m
attr unit m
par Scenario.node[9].veinsmobility setHostSpeed false
par Scenario.node[9].veinsmobility accidentCount 0
par Scenario.node[9].veinsmobility accidentStart 34.0105s
attr unit s
par Scenario.node[9].veinsmobility accidentDuration "uniform(30s, 60s)"
attr unit s
par Scenario.node[9].veinsmobility accidentInterval "uniform(30s, 60s)"
attr unit s
scalar Scenario.node[9].veinsmobility startTime 18.1
scalar Scenario.node[9].veinsmobility totalTime 40.4
scalar Scenario.node[9].veinsmobility stopTime 58.6
scalar Scenario.node[9].veinsmobility minSpeed 0.2578859698493
scalar Scenario.node[9].veinsmobility maxSpeed 14.502002162989
scalar Scenario.node[9].veinsmobility totalDistance 427.77009406305
scalar Scenario.node[9].veinsmobility totalCO2Emission 141.88364601199
par Scenario.node[9] typename "\"org.car2x.veins.nodes.Car\""
par Scenario.node[9] applType "\"TraCIDemo11p\""
par Scenario.node[9] nicType "\"Nic80211p\""
par Scenario.node[9] veinsmobilityType "\"org.car2x.veins.modules.mobility.traci.TraCIMobility\""
par Scenario.node[8].appl typename "\"org.car2x.veins.modules.application.traci.TraCIDemo11p\""
par Scenario.node[8].appl headerLength 80bit
attr unit bit
par Scenario.node[8].appl sendBeacons true
par Scenario.node[8].appl beaconLengthBits 256bit
attr unit bit
par Scenario.node[8].appl beaconUserPriority 7
par Scenario.node[8].appl beaconInterval 0.1s
attr unit s
par Scenario.node[8].appl dataLengthBits 1024bit
attr unit bit
par Scenario.node[8].appl dataOnSch false
par Scenario.node[8].appl dataUserPriority 7
par Scenario.node[8].appl avoidBeaconSynchronization true
par Scenario.node[8].appl sendWSA false
par Scenario.node[8].appl wsaLengthBits 250bit
attr unit bit
par Scenario.node[8].appl wsaInterval 1s
attr unit s
scalar Scenario.node[8].appl generatedWSMs 0
scalar Scenario.node[8].appl receivedWSMs 0
scalar Scenario.node[8].appl generatedBSMs 434
scalar Scenario.node[8].appl receivedBSMs 3053
scalar Scenario.node[8].appl generatedWSAs 0
scalar Scenario.node[8].appl receivedWSAs 0
par Scenario.node[8].nic.phy80211p typename "\"org.car2x.veins.modules.phy.PhyLayer80211p\""
par Scenario.node[8].nic.phy80211p recordStats false
par Scenario.node[8].nic.phy80211p usePropagationDelay true
par Scenario.node[8].nic.phy80211p noiseFloor -98dBm
attr unit dBm
par Scenario.node[8].nic.phy80211p useNoiseFloor true
par Scenario.node[8].nic.phy80211p antenna "<root>...</root> at content:1"
par Scenario.node[8].nic.phy80211p antennaOffsetX 0m
attr unit m
par Scenario.node[8].nic.phy80211p antennaOffsetY 0m
attr unit m
par Scenario.node[8].nic.phy80211p antennaOffsetZ 1.895m
attr unit m
par Scenario.node[8].nic.phy80211p antennaOffsetYaw 0rad
attr unit rad
par Scenario.node[8].nic.phy80211p analogueModels "<root>...</root> at /home/vagrant/spe-homework-project/Project/simulations//config_3.xml:2"
par Scenario.node[8].nic.phy80211p decider "<root>...</root> at /home/vagrant/spe-homework-project/Project/simulations//config_3.xml:2"
par Scenario.node[8].nic.phy80211p minPowerLevel -110dBm
attr unit dBm
par Scenario.node[8].nic.phy80211p timeRXToTX 0s
attr unit s
par Scenario.node[8].nic.phy80211p timeRXToSleep 0s
attr unit s
par Scenario.node[8].nic.phy80211p timeTXToRX 0s
attr unit s
par Scenario.node[8].nic.phy80211p timeTXToSleep 0s
attr unit s
par Scenario.node[8].nic.phy80211p timeSleepToRX 0s
attr unit s
par Scenario.node[8].nic.phy80211p timeSleepToTX 0s
attr unit s
par Scenario.node[8].nic.phy80211p initialRadioState 0
par Scenario.node[8].nic.phy80211p radioMinAtt 1
par Scenario.node[8].nic.phy80211p radioMaxAtt 0
par Scenario.node[8].nic.phy80211p nbRadioChannels 1
par Scenario.node[8].nic.phy80211p initialRadioChannel 0
par Scenario.node[8].nic.phy80211p ccaThreshold -65dBm
attr unit dBm
par Scenario.node[8].nic.phy80211p collectCollisionStatistics false
par Scenario.node[8].nic.phy80211p allowTxDuringRx false
scalar Scenario.node[8].nic.phy80211p busyTime 0.0087129953917048
par Scenario.node[8].nic.mac1609_4 typename "\"org.car2x.veins.modules.mac.ieee80211p.Mac1609_4\""
par Scenario.node[8].nic.mac1609_4 notAffectedByHostState false
par Scenario.node[8].nic.mac1609_4 headerLength 0bit
attr unit bit
par Scenario.node[8].nic.mac1609_4 address "\"auto\""
par Scenario.node[8].nic.mac1609_4 useServiceChannel false
par Scenario.node[8].nic.mac1609_4 serviceChannel 1
par Scenario.node[8].nic.mac1609_4 bitrate 6000000bps
attr unit bps
par Scenario.node[8].nic.mac1609_4 syncOffset 0.0003s
attr unit s
par Scenario.node[8].nic.mac1609_4 txPower 20mW
attr unit mW
par Scenario.node[8].nic.mac1609_4 queueSize 0
par Scenario.node[8].nic.mac1609_4 dot11RTSThreshold 12000bit
attr unit bit
par Scenario.node[8].nic.mac1609_4 dot11ShortRetryLimit 7
par Scenario.node[8].nic.mac1609_4 dot11LongRetryLimit 4
par Scenario.node[8].nic.mac1609_4 ackLength 112bit
attr unit bit
par Scenario.node[8].nic.mac1609_4 useAcks false
par Scenario.node[8].nic.mac1609_4 frameErrorRate 0
par Scenario.node[8].nic.mac1609_4 ackErrorRate 0
scalar Scenario.node[8].nic.mac1609_4 ReceivedUnicastPackets 0
scalar Scenario.node[8].nic.mac1609_4 ReceivedBroadcasts 3053
scalar Scenario.node[8].nic.mac1609_4 SentPackets 434
scalar Scenario.node[8].nic.mac1609_4 SentAcknowledgements 0
scalar Scenario.node[8].nic.mac1609_4 RetriesExceeded 0
scalar Scenario.node[8].nic.mac1609_4 SNIRLostPackets 583
scalar Scenario.node[8].nic.mac1609_4 RXTXLostPackets 0
scalar Scenario.node[8].nic.mac1609_4 TotalLostPackets 583
scalar Scenario.node[8].nic.mac1609_4 DroppedPacketsInMac 0
scalar Scenario.node[8].nic.mac1609_4 TooLittleTime 0
scalar Scenario.node[8].nic.mac1609_4 TimesIntoBackoff 434
scalar Scenario.node[8].nic.mac1609_4 SlotsBackoff 638
scalar Scenario.node[8].nic.mac1609_4 NumInternalContention 0
scalar Scenario.node[8].nic.mac1609_4 totalBusyTime 0.423714
scalar Scenario.node[8].nic.mac1609_4 retriesExceeded:count 0
attr recordingmode count
attr source org_car2x_veins_modules_mac_sigRetriesExceeded
scalar Scenario.node[8].nic.mac1609_4 sentAcks:count 0
attr recordingmode count
attr source org_car2x_veins_modules_mac_sigSentAck
scalar Scenario.node[8].nic.mac1609_4 sentPackets:count 434
attr recordingmode count
attr source org_car2x_veins_modules_mac_sigSentPacket
scalar Scenario.node[8].nic.mac1609_4 collisions:count 0
attr recordingmode count
attr source org_car2x_veins_modules_mac_sigCollision
scalar Scenario.node[8].nic.mac1609_4 channelBusy:timeavg 0.0097629953917048
attr recordingmode timeavg
attr source org_car2x_veins_modules_mac_sigChannelBusy
par Scenario.node[8].nic typename "\"org.car2x.veins.modules.nic.Nic80211p\""
par Scenario.node[8].nic connectionManagerName "\"connectionManager\""
par Scenario.node[8].veinsmobility typename "\"org.car2x.veins.modules.mobility.traci.TraCIMobility\""
par Scenario.node[8].veinsmobility notAffectedByHostState true
par Scenario.node[8].veinsmobility x 0
par Scenario.node[8].veinsmobility y 0
par Scenario.node[8].veinsmobility z 1.895
par Scenario.node[8].veinsmobility xOrientation 1
par Scenario.node[8].veinsmobility yOrientation 0
par Scenario.node[8].veinsmobility zOrientation 0
par Scenario.node[8].veinsmobility hostPositionOffset 0m
attr unit m
par Scenario.node[8].veinsmobility setHostSpeed false
par Scenario.node[8].veinsmobility accidentCount 0
par Scenario.node[8].veinsmobility accidentStart 34.2966s
attr unit s
par Scenario.node[8].veinsmobility accidentDuration "uniform(30s, 60s)"
attr unit s
par Scenario.node[8].veinsmobility accidentInterval "uniform(30s, 60s)"
attr unit s
scalar Scenario.node[8].veinsmobility startTime 16.1
scalar Scenario.node[8].veinsmobility totalTime 43.3
scalar Scenario.node[8].veinsmobility stopTime 59.5
scalar Scenario.node[8].veinsmobility minSpeed 0.25599684562138
scalar Scenario.node[8].veinsmobility maxSpeed 11.985637833255
scalar Scenario.node[8].veinsmobility totalDistance 420.16250772935
scalar Scenario.node[8].veinsmobility totalCO2Emission 125.91406510314
par Scenario.node[8] typename "\"org.car2x.veins.nodes.Car\""
par Scenario.node[8] applType "\"TraCIDemo11p\""
par Scenario.node[8] nicType "\"Nic80211p\""
par Scenario.node[8] veinsmobilityType "\"org.car2x.veins.modules.mobility.traci.TraCIMobility\""
par Scenario.node[12].appl typename "\"org.car2x.veins.modules.application.traci.TraCIDemo11p\""
par Scenario.node[12].appl headerLength 80bit
attr unit bit
par Scenario.node[12].appl sendBeacons true
par Scenario.node[12].appl beaconLengthBits 256bit
attr unit bit
par Scenario.node[12].appl beaconUserPriority 7
par Scenario.node[12].appl beaconInterval 0.1s
attr unit s
par Scenario.node[12].appl dataLengthBits 1024bit
attr unit bit
par Scenario.node[12].appl dataOnSch false
par Scenario.node[12].appl dataUserPriority 7
par Scenario.node[12].appl avoidBeaconSynchronization true
par Scenario.node[12].appl sendWSA false
par Scenario.node[12].appl wsaLengthBits 250bit
attr unit bit
par Scenario.node[12].appl wsaInterval 1s
attr unit s
scalar Scenario.node[12].appl generatedWSMs 0
scalar Scenario.node[12].appl receivedWSMs 0
scalar Scenario.node[12].appl generatedBSMs 366
scalar Scenario.node[12].appl receivedBSMs 2988
scalar Scenario.node[12].appl generatedWSAs 0
scalar Scenario.node[12].appl receivedWSAs 0
par Scenario.node[12].nic.phy80211p typename "\"org.car2x.veins.modules.phy.PhyLayer80211p\""
par Scenario.node[12].nic.phy80211p recordStats false
par Scenario.node[12].nic.phy80211p usePropagationDelay true
par Scenario.node[12].nic.phy80211p noiseFloor -98dBm
attr unit dBm
par Scenario.node[12].nic.phy80211p useNoiseFloor true
par Scenario.node[12].nic.phy80211p antenna "<root>...</root> at content:1"
par Scenario.node[12].nic.phy80211p antennaOffsetX 0m
attr unit m
par Scenario.node[12].nic.phy80211p antennaOffsetY 0m
attr unit m
par Scenario.node[12].nic.phy80211p antennaOffsetZ 1.895m
attr unit m
par Scenario.node[12].nic.phy80211p antennaOffsetYaw 0rad
attr unit rad
par Scenario.node[12].nic.phy80211p analogueModels "<root>...</root> at /home/vagrant/spe-homework-project/Project/simulations//config_3.xml:2"
par Scenario.node[12].nic.phy80211p decider "<root>...</root> at /home/vagrant/spe-homework-project/Project/simulations//config_3.xml:2"
par Scenario.node[12].nic.phy80211p minPowerLevel -110dBm
attr unit dBm
par Scenario.node[12].nic.phy80211p timeRXToTX 0s
attr unit s
par Scenario.node[12].nic.phy80211p timeRXToSleep 0s
attr unit s
par Scenario.node[12].nic.phy80211p timeTXToRX 0s
attr unit s
par Scenario.node[12].nic.phy80211p timeTXToSleep 0s
attr unit s
par Scenario.node[12].nic.phy80211p timeSleepToRX 0s
attr unit s
par Scenario.node[12].nic.phy80211p timeSleepToTX 0s
attr unit s
par Scenario.node[12].nic.phy80211p initialRadioState 0
par Scenario.node[12].nic.phy80211p radioMinAtt 1
par Scenario.node[12].nic.phy80211p radioMaxAtt 0
par Scenario.node[12].nic.phy80211p nbRadioChannels 1
par Scenario.node[12].nic.phy80211p initialRadioChannel 0
par Scenario.node[12].nic.phy80211p ccaThreshold -65dBm
attr unit dBm
par Scenario.node[12].nic.phy80211p collectCollisionStatistics false
par Scenario.node[12].nic.phy80211p allowTxDuringRx false
scalar Scenario.node[12].nic.phy80211p busyTime 0.0097464480874314
par Scenario.node[12].nic.mac1609_4 typename "\"org.car2x.veins.modules.mac.ieee80211p.Mac1609_4\""
par Scenario.node[12].nic.mac1609_4 notAffectedByHostState false
par Scenario.node[12].nic.mac1609_4 headerLength 0bit
attr unit bit
par Scenario.node[12].nic.mac1609_4 address "\"auto\""
par Scenario.node[12].nic.mac1609_4 useServiceChannel false
par Scenario.node[12].nic.mac1609_4 serviceChannel 1
par Scenario.node[12].nic.mac1609_4 bitrate 6000000bps
attr unit bps
par Scenario.node[12].nic.mac1609_4 syncOffset 0.0003s
attr unit s
par Scenario.node[12].nic.mac1609_4 txPower 20mW
attr unit mW
par Scenario.node[12].nic.mac1609_4 queueSize 0
par Scenario.node[12].nic.mac1609_4 dot11RTSThreshold 12000bit
attr unit bit
par Scenario.node[12].nic.mac1609_4 dot11ShortRetryLimit 7
par Scenario.node[12].nic.mac1609_4 dot11LongRetryLimit 4
par Scenario.node[12].nic.mac1609_4 ackLength 112bit
attr unit bit
par Scenario.node[12].nic.mac1609_4 useAcks false
par Scenario.node[12].nic.mac1609_4 frameErrorRate 0
par Scenario.node[12].nic.mac1609_4 ackErrorRate 0
scalar Scenario.node[12].nic.mac1609_4 ReceivedUnicastPackets 0
scalar Scenario.node[12].nic.mac1609_4 ReceivedBroadcasts 2988
scalar Scenario.node[12].nic.mac1609_4 SentPackets 366
scalar Scenario.node[12].nic.mac1609_4 SentAcknowledgements 0
scalar Scenario.node[12].nic.mac1609_4 RetriesExceeded 0
scalar Scenario.node[12].nic.mac1609_4 SNIRLostPackets 442
scalar Scenario.node[12].nic.mac1609_4 RXTXLostPackets 0
scalar Scenario.node[12].nic.mac1609_4 TotalLostPackets 442
scalar Scenario.node[12].nic.mac1609_4 DroppedPacketsInMac 0
scalar Scenario.node[12].nic.mac1609_4 TooLittleTime 0
scalar Scenario.node[12].nic.mac1609_4 TimesIntoBackoff 366
scalar Scenario.node[12].nic.mac1609_4 SlotsBackoff 556
scalar Scenario.node[12].nic.mac1609_4 NumInternalContention 0
scalar Scenario.node[12].nic.mac1609_4 totalBusyTime 0.392862
scalar Scenario.node[12].nic.mac1609_4 retriesExceeded:count 0
attr recordingmode count
attr source org_car2x_veins_modules_mac_sigRetriesExceeded
scalar Scenario.node[12].nic.mac1609_4 sentAcks:count 0
attr recordingmode count
attr source org_car2x_veins_modules_mac_sigSentAck
scalar Scenario.node[12].nic.mac1609_4 sentPackets:count 366
attr recordingmode count
attr source org_car2x_veins_modules_mac_sigSentPacket
scalar Scenario.node[12].nic.mac1609_4 collisions:count 0
attr recordingmode count
attr source org_car2x_veins_modules_mac_sigCollision
scalar Scenario.node[12].nic.mac1609_4 channelBusy:timeavg 0.010733934426229
attr recordingmode timeavg
attr source org_car2x_veins_modules_mac_sigChannelBusy
par Scenario.node[12].nic typename "\"org.car2x.veins.modules.nic.Nic80211p\""
par Scenario.node[12].nic connectionManagerName "\"connectionManager\""
par Scenario.node[12].veinsmobility typename "\"org.car2x.veins.modules.mobility.traci.TraCIMobility\""
par Scenario.node[12].veinsmobility notAffectedByHostState true
par Scenario.node[12].veinsmobility x 0
par Scenario.node[12].veinsmobility y 0
par Scenario.node[12].veinsmobility z 1.895
par Scenario.node[12].veinsmobility xOrientation 1
par Scenario.node[12].veinsmobility yOrientation 0
par Scenario.node[12].veinsmobility zOrientation 0
par Scenario.node[12].veinsmobility hostPositionOffset 0m
attr unit m
par Scenario.node[12].veinsmobility setHostSpeed false
par Scenario.node[12].veinsmobility accidentCount 0
par Scenario.node[12].veinsmobility accidentStart 31.4656s
attr unit s
par Scenario.node[12].veinsmobility accidentDuration "uniform(30s, 60s)"
attr unit s
par Scenario.node[12].veinsmobility accidentInterval "uniform(30s, 60s)"
attr unit s
scalar Scenario.node[12].veinsmobility startTime 25.2
scalar Scenario.node[12].veinsmobility totalTime 36.5
scalar Scenario.node[12].veinsmobility stopTime 61.8
scalar Scenario.node[12].veinsmobility minSpeed 0.25490976013662
scalar Scenario.node[12].veinsmobility maxSpeed 14.456461440541
scalar Scenario.node[12].veinsmobility totalDistance 419.39817266525
scalar Scenario.node[12].veinsmobility totalCO2Emission 121.59025624939
par Scenario.node[12] typename "\"org.car2x.veins.nodes.Car\""
par Scenario.node[12] applType "\"TraCIDemo11p\""
par Scenario.node[12] nicType "\"Nic80211p\""
par Scenario.node[12] veinsmobilityType "\"org.car2x.veins.modules.mobility.traci.TraCIMobility\""
par Scenario.node[4].appl typename "\"org.car2x.veins.modules.application.traci.TraCIDemo11p\""
par Scenario.node[4].appl headerLength 80bit
attr unit bit
par Scenario.node[4].appl sendBeacons true
par Scenario.node[4].appl beaconLengthBits 256bit
attr unit bit
par Scenario.node[4].appl beaconUserPriority 7
par Scenario.node[4].appl beaconInterval 0.1s
attr unit s
par Scenario.node[4].appl dataLengthBits 1024bit
attr unit bit
par Scenario.node[4].appl dataOnSch false
par Scenario.node[4].appl dataUserPriority 7
par Scenario.node[4].appl avoidBeaconSynchronization true
par Scenario.node[4].appl sendWSA false
par Scenario.node[4].appl wsaLengthBits 250bit
attr unit bit
par Scenario.node[4].appl wsaInterval 1s
attr unit s
scalar Scenario.node[4].appl generatedWSMs 0
scalar Scenario.node[4].appl receivedWSMs 0
scalar Scenario.node[4].appl generatedBSMs 564
scalar Scenario.node[4].appl receivedBSMs 2581
scalar Scenario.node[4].appl generatedWSAs 0
scalar Scenario.node[4].appl receivedWSAs 0
par Scenario.node[4].nic.phy80211p typename "\"org.car2x.veins.modules.phy.PhyLayer80211p\""
par Scenario.node[4].nic.phy80211p recordStats false
par Scenario.node[4].nic.phy80211p usePropagationDelay true
par Scenario.node[4].nic.phy80211p noiseFloor -98dBm
attr unit dBm
par Scenario.node[4].nic.phy80211p useNoiseFloor true
par Scenario.node[4].nic.phy80211p antenna "<root>...</root> at content:1"
par Scenario.node[4].nic.phy80211p antennaOffsetX 0m
attr unit m
par Scenario.node[4].nic.phy80211p antennaOffsetY 0m
attr unit m
par Scenario.node[4].nic.phy80211p antennaOffsetZ 1.895m
attr unit m
par Scenario.node[4].nic.phy80211p antennaOffsetYaw 0rad
attr unit rad
par Scenario.node[4].nic.phy80211p analogueModels "<root>...</root> at /home/vagrant/spe-homework-project/Project/simulations//config_3.xml:2"
par Scenario.node[4].nic.phy80211p decider "<root>...</root> at /home/vagrant/spe-homework-project/Project/simulations//config_3.xml:2"
par Scenario.node[4].nic.phy80211p minPowerLevel -110dBm
attr unit dBm
par Scenario.node[4].nic.phy80211p timeRXToTX 0s
attr unit s
par Scenario.node[4].nic.phy80211p timeRXToSleep 0s
attr unit s
par Scenario.node[4].nic.phy80211p timeTXToRX 0s
attr unit s
par Scenario.node[4].nic.phy80211p timeTXToSleep 0s
attr unit s
par Scenario.node[4].nic.phy80211p timeSleepToRX 0s
attr unit s
par Scenario.node[4].nic.phy80211p timeSleepToTX 0s
attr unit s
par Scenario.node[4].nic.phy80211p initialRadioState 0
par Scenario.node[4].nic.phy80211p radioMinAtt 1
par Scenario.node[4].nic.phy80211p radioMaxAtt 0
par Scenario.node[4].nic.phy80211p nbRadioChannels 1
par Scenario.node[4].nic.phy80211p initialRadioChannel 0
par Scenario.node[4].nic.phy80211p ccaThreshold -65dBm
attr unit dBm
par Scenario.node[4].nic.phy80211p collectCollisionStatistics false
par Scenario.node[4].nic.phy80211p allowTxDuringRx false
scalar Scenario.node[4].nic.phy80211p busyTime 0.0055392907801417
par Scenario.node[4].nic.mac1609_4 typename "\"org.car2x.veins.modules.mac.ieee80211p.Mac1609_4\""
par Scenario.node[4].nic.mac1609_4 notAffectedByHostState false
par Scenario.node[4].nic.mac1609_4 headerLength 0bit
attr unit bit
par Scenario.node[4].nic.mac1609_4 address "\"auto\""
par Scenario.node[4].nic.mac1609_4 useServiceChannel false
par Scenario.node[4].nic.mac1609_4 serviceChannel 1
par Scenario.node[4].nic.mac1609_4 bitrate 6000000bps
attr unit bps
par Scenario.node[4].nic.mac1609_4 syncOffset 0.0003s
attr unit s
par Scenario.node[4].nic.mac1609_4 txPower 20mW
attr unit mW
par Scenario.node[4].nic.mac1609_4 queueSize 0
par Scenario.node[4].nic.mac1609_4 dot11RTSThreshold 12000bit
attr unit bit
par Scenario.node[4].nic.mac1609_4 dot11ShortRetryLimit 7
par Scenario.node[4].nic.mac1609_4 dot11LongRetryLimit 4
par Scenario.node[4].nic.mac1609_4 ackLength 112bit
attr unit bit
par Scenario.node[4].nic.mac1609_4 useAcks false
par Scenario.node[4].nic.mac1609_4 frameErrorRate 0
par Scenario.node[4].nic.mac1609_4 ackErrorRate 0
scalar Scenario.node[4].nic.mac1609_4 ReceivedUnicastPackets 0
scalar Scenario.node[4].nic.mac1609_4 ReceivedBroadcasts 2581
scalar Scenario.node[4].nic.mac1609_4 SentPackets 564
scalar Scenario.node[4].nic.mac1609_4 SentAcknowledgements 0
scalar Scenario.node[4].nic.mac1609_4 RetriesExceeded 0
scalar Scenario.node[4].nic.mac1609_4 SNIRLostPackets 423
scalar Scenario.node[4].nic.mac1609_4 RXTXLostPackets 0
scalar Scenario.node[4].nic.mac1609_4 TotalLostPackets 423
scalar Scenario.node[4].nic.mac1609_4 DroppedPacketsInMac 0
scalar Scenario.node[4].nic.mac1609_4 TooLittleTime 0
scalar Scenario.node[4].nic.mac1609_4 TimesIntoBackoff 564
scalar Scenario.node[4].nic.mac1609_4 SlotsBackoff 855
scalar Scenario.node[4].nic.mac1609_4 NumInternalContention 0
scalar Scenario.node[4].nic.mac1609_4 totalBusyTime 0.36602
scalar Scenario.node[4].nic.mac1609_4 retriesExceeded:count 0
attr recordingmode count
attr source org_car2x_veins_modules_mac_sigRetriesExceeded
scalar Scenario.node[4].nic.mac1609_4 sentAcks:count 0
attr recordingmode count
attr source org_car2x_veins_modules_mac_sigSentAck
scalar Scenario.node[4].nic.mac1609_4 sentPackets:count 564
attr recordingmode count
attr source org_car2x_veins_modules_mac_sigSentPacket
scalar Scenario.node[4].nic.mac1609_4 collisions:count 0
attr recordingmode count
attr source org_car2x_veins_modules_mac_sigCollision
scalar Scenario.node[4].nic.mac1609_4 channelBusy:timeavg 0.0064897163120566
attr recordingmode timeavg
attr source org_car2x_veins_modules_mac_sigChannelBusy
par Scenario.node[4].nic typename "\"org.car2x.veins.modules.nic.Nic80211p\""
par Scenario.node[4].nic connectionManagerName "\"connectionManager\""
par Scenario.node[4].veinsmobility typename "\"org.car2x.veins.modules.mobility.traci.TraCIMobility\""
par Scenario.node[4].veinsmobility notAffectedByHostState true
par Scenario.node[4].veinsmobility x 0
par Scenario.node[4].veinsmobility y 0
par Scenario.node[4].veinsmobility z 1.895
par Scenario.node[4].veinsmobility xOrientation 1
par Scenario.node[4].veinsmobility yOrientation 0
par Scenario.node[4].veinsmobility zOrientation 0
par Scenario.node[4].veinsmobility hostPositionOffset 0m
attr unit m
par Scenario.node[4].veinsmobility setHostSpeed false
par Scenario.node[4].veinsmobility accidentCount 0
par Scenario.node[4].veinsmobility accidentStart 56.795s
attr unit s
par Scenario.node[4].veinsmobility accidentDuration "uniform(30s, 60s)"
attr unit s
par Scenario.node[4].veinsmobility accidentInterval "uniform(30s, 60s)"
attr unit s
scalar Scenario.node[4].veinsmobility startTime 8.1
scalar Scenario.node[4].veinsmobility totalTime 56.3
scalar Scenario.node[4].veinsmobility stopTime 64.5
scalar Scenario.node[4].veinsmobility minSpeed 0.25873206313117
scalar Scenario.node[4].veinsmobility maxSpeed 13.262583270213
scalar Scenario.node[4].veinsmobility totalDistance 563.90268675428
scalar Scenario.node[4].veinsmobility totalCO2Emission 180.84676122597
par Scenario.node[4] typename "\"org.car2x.veins.nodes.Car\""
par Scenario.node[4] applType "\"TraCIDemo11p\""
par Scenario.node[4] nicType "\"Nic80211p\""
par Scenario.node[4] veinsmobilityType "\"org.car2x.veins.modules.mobility.traci.TraCIMobility\""
par Scenario.node[6].appl typename "\"org.car2x.veins.modules.application.traci.TraCIDemo11p\""
par Scenario.node[6].appl headerLength 80bit
attr unit bit
par Scenario.node[6].appl sendBeacons true
par Scenario.node[6].appl beaconLengthBits 256bit
attr unit bit
par Scenario.node[6].appl beaconUserPriority 7
par Scenario.node[6].appl beaconInterval 0.1s
attr unit s
par Scenario.node[6].appl dataLengthBits 1024bit
attr unit bit
par Scenario.node[6].appl dataOnSch false
par Scenario.node[6].appl dataUserPriority 7
par Scenario.node[6].appl avoidBeaconSynchronization true
par Scenario.node[6].appl sendWSA false
par Scenario.node[6].appl wsaLengthBits 250bit
attr unit bit
par Scenario.node[6].appl wsaInterval 1s
attr unit s
scalar Scenario.node[6].appl generatedWSMs 0
scalar Scenario.node[6].appl receivedWSMs 0
scalar Scenario.node[6].appl generatedBSMs 531
scalar Scenario.node[6].appl receivedBSMs 3560
scalar Scenario.node[6].appl generatedWSAs 0
scalar Scenario.node[6].appl receivedWSAs 0
par Scenario.node[6].nic.phy80211p typename "\"org.car2x.veins.modules.phy.PhyLayer80211p\""
par Scenario.node[6].nic.phy80211p recordStats false
par Scenario.node[6].nic.phy80211p usePropagationDelay true
par Scenario.node[6].nic.phy80211p noiseFloor -98dBm
attr unit dBm
par Scenario.node[6].nic.phy80211p useNoiseFloor true
par Scenario.node[6].nic.phy80211p antenna "<root>...</root> at content:1"
par Scenario.node[6].nic.phy80211p antennaOffsetX 0m
attr unit m
par Scenario.node[6].nic.phy80211p antennaOffsetY 0m
attr unit m
par Scenario.node[6].nic.phy80211p antennaOffsetZ 1.895m
attr unit m
par Scenario.node[6].nic.phy80211p antennaOffsetYaw 0rad
attr unit rad
par Scenario.node[6].nic.phy80211p analogueModels "<root>...</root> at /home/vagrant/spe-homework-project/Project/simulations//config_3.xml:2"
par Scenario.node[6].nic.phy80211p decider "<root>...</root> at /home/vagrant/spe-homework-project/Project/simulations//config_3.xml:2"
par Scenario.node[6].nic.phy80211p minPowerLevel -110dBm
attr unit dBm
par Scenario.node[6].nic.phy80211p timeRXToTX 0s
attr unit s
par Scenario.node[6].nic.phy80211p timeRXToSleep 0s
attr unit s
par Scenario.node[6].nic.phy80211p timeTXToRX 0s
attr unit s
par Scenario.node[6].nic.phy80211p timeTXToSleep 0s
attr unit s
par Scenario.node[6].nic.phy80211p timeSleepToRX 0s
attr unit s
par Scenario.node[6].nic.phy80211p timeSleepToTX 0s
attr unit s
par Scenario.node[6].nic.phy80211p initialRadioState 0
par Scenario.node[6].nic.phy80211p radioMinAtt 1
par Scenario.node[6].nic.phy80211p radioMaxAtt 0
par Scenario.node[6].nic.phy80211p nbRadioChannels 1
par Scenario.node[6].nic.phy80211p initialRadioChannel 0
par Scenario.node[6].nic.phy80211p ccaThreshold -65dBm
attr unit dBm
par Scenario.node[6].nic.phy80211p collectCollisionStatistics false
par Scenario.node[6].nic.phy80211p allowTxDuringRx false
scalar Scenario.node[6].nic.phy80211p busyTime 0.0082181544256117
par Scenario.node[6].nic.mac1609_4 typename "\"org.car2x.veins.modules.mac.ieee80211p.Mac1609_4\""
par Scenario.node[6].nic.mac1609_4 notAffectedByHostState false
par Scenario.node[6].nic.mac1609_4 headerLength 0bit
attr unit bit
par Scenario.node[6].nic.mac1609_4 address "\"auto\""
par Scenario.node[6].nic.mac1609_4 useServiceChannel false
par Scenario.node[6].nic.mac1609_4 serviceChannel 1
par Scenario.node[6].nic.mac1609_4 bitrate 6000000bps
attr unit bps
par Scenario.node[6].nic.mac1609_4 syncOffset 0.0003s
attr unit s
par Scenario.node[6].nic.mac1609_4 txPower 20mW
attr unit mW
par Scenario.node[6].nic.mac1609_4 queueSize 0
par Scenario.node[6].nic.mac1609_4 dot11RTSThreshold 12000bit
attr unit bit
par Scenario.node[6].nic.mac1609_4 dot11ShortRetryLimit 7
par Scenario.node[6].nic.mac1609_4 dot11LongRetryLimit 4
par Scenario.node[6].nic.mac1609_4 ackLength 112bit
attr unit bit
par Scenario.node[6].nic.mac1609_4 useAcks false
par Scenario.node[6].nic.mac1609_4 frameErrorRate 0
par Scenario.node[6].nic.mac1609_4 ackErrorRate 0
scalar Scenario.node[6].nic.mac1609_4 ReceivedUnicastPackets 0
scalar Scenario.node[6].nic.mac1609_4 ReceivedBroadcasts 3560
scalar Scenario.node[6].nic.mac1609_4 SentPackets 531
scalar Scenario.node[6].nic.mac1609_4 SentAcknowledgements 0
scalar Scenario.node[6].nic.mac1609_4 RetriesExceeded 0
scalar Scenario.node[6].nic.mac1609_4 SNIRLostPackets 636
scalar Scenario.node[6].nic.mac1609_4 RXTXLostPackets 0
scalar Scenario.node[6].nic.mac1609_4 TotalLostPackets 636
scalar Scenario.node[6].nic.mac1609_4 DroppedPacketsInMac 0
scalar Scenario.node[6].nic.mac1609_4 TooLittleTime 0
scalar Scenario.node[6].nic.mac1609_4 TimesIntoBackoff 531
scalar Scenario.node[6].nic.mac1609_4 SlotsBackoff 773
scalar Scenario.node[6].nic.mac1609_4 NumInternalContention 0
scalar Scenario.node[6].nic.mac1609_4 totalBusyTime 0.489435
scalar Scenario.node[6].nic.mac1609_4 retriesExceeded:count 0
attr recordingmode count
attr source org_car2x_veins_modules_mac_sigRetriesExceeded
scalar Scenario.node[6].nic.mac1609_4 sentAcks:count 0
attr recordingmode count
attr source org_car2x_veins_modules_mac_sigSentAck
scalar Scenario.node[6].nic.mac1609_4 sentPackets:count 531
attr recordingmode count
attr source org_car2x_veins_modules_mac_sigSentPacket
scalar Scenario.node[6].nic.mac1609_4 collisions:count 0
attr recordingmode count
attr source org_car2x_veins_modules_mac_sigCollision
scalar Scenario.node[6].nic.mac1609_4 channelBusy:timeavg 0.0092172316384178
attr recordingmode timeavg
attr source org_car2x_veins_modules_mac_sigChannelBusy
par Scenario.node[6].nic typename "\"org.car2x.veins.modules.nic.Nic80211p\""
par Scenario.node[6].nic connectionManagerName "\"connectionManager\""
par Scenario.node[6].veinsmobility typename "\"org.car2x.veins.modules.mobility.traci.TraCIMobility\""
par Scenario.node[6].veinsmobility notAffectedByHostState true
par Scenario.node[6].veinsmobility x 0
par Scenario.node[6].veinsmobility y 0
par Scenario.node[6].veinsmobility z 1.895
par Scenario.node[6].veinsmobility xOrientation 1
par Scenario.node[6].veinsmobility yOrientation 0
par Scenario.node[6].veinsmobility zOrientation 0
par Scenario.node[6].veinsmobility hostPositionOffset 0m
attr unit m
par Scenario.node[6].veinsmobility setHostSpeed false
par Scenario.node[6].veinsmobility accidentCount 0
par Scenario.node[6].veinsmobility accidentStart 42.5931s
attr unit s
par Scenario.node[6].veinsmobility accidentDuration "uniform(30s, 60s)"
attr unit s
par Scenario.node[6].veinsmobility accidentInterval "uniform(30s, 60s)"
attr unit s
scalar Scenario.node[6].veinsmobility startTime 12.1
scalar Scenario.node[6].veinsmobility totalTime 53
scalar Scenario.node[6].veinsmobility stopTime 65.2
scalar Scenario.node[6].veinsmobility minSpeed 0.25052940650261
scalar Scenario.node[6].veinsmobility maxSpeed 14.28469441045
scalar Scenario.node[6].veinsmobility totalDistance 574.2088091593
scalar Scenario.node[6].veinsmobility totalCO2Emission 169.95948731485
par Scenario.node[6] typename "\"org.car2x.veins.nodes.Car\""
par Scenario.node[6] applType "\"TraCIDemo11p\""
par Scenario.node[6] nicType "\"Nic80211p\""
par Scenario.node[6] veinsmobilityType "\"org.car2x.veins.modules.mobility.traci.TraCIMobility\""
par Scenario.node[22].appl typename "\"org.car2x.veins.modules.application.traci.TraCIDemo11p\""
par Scenario.node[22].appl headerLength 80bit
attr unit bit
par Scenario.node[22].appl sendBeacons true
par Scenario.node[22].appl beaconLengthBits 256bit
attr unit bit
par Scenario.node[22].appl beaconUserPriority 7
par Scenario.node[22].appl beaconInterval 0.1s
attr unit s
par Scenario.node[22].appl dataLengthBits 1024bit
attr unit bit
par Scenario.node[22].appl dataOnSch false
par Scenario.node[22].appl dataUserPriority 7
par Scenario.node[22].appl avoidBeaconSynchronization true
par Scenario.node[22].appl sendWSA false
par Scenario.node[22].appl wsaLengthBits 250bit
attr unit bit
par Scenario.node[22].appl wsaInterval 1s
attr unit s
scalar Scenario.node[22].appl generatedWSMs 0
scalar Scenario.node[22].appl receivedWSMs 0
scalar Scenario.node[22].appl generatedBSMs 235
scalar Scenario.node[22].appl receivedBSMs 1128
scalar Scenario.node[22].appl generatedWSAs 0
scalar Scenario.node[22].appl receivedWSAs 0
par Scenario.node[22].nic.phy80211p typename "\"org.car2x.veins.modules.phy.PhyLayer80211p\""
par Scenario.node[22].nic.phy80211p recordStats false
par Scenario.node[22].nic.phy80211p usePropagationDelay true
par Scenario.node[22].nic.phy80211p noiseFloor -98dBm
attr unit dBm
par Scenario.node[22].nic.phy80211p useNoiseFloor true
par Scenario.node[22].nic.phy80211p antenna "<root>...</root> at content:1"
par Scenario.node[22].nic.phy80211p antennaOffsetX 0m
attr unit m
par Scenario.node[22].nic.phy80211p antennaOffsetY 0m
attr unit m
par Scenario.node[22].nic.phy80211p antennaOffsetZ 1.895m
attr unit m
par Scenario.node[22].nic.phy80211p antennaOffsetYaw 0rad
attr unit rad
par Scenario.node[22].nic.phy80211p analogueModels "<root>...</root> at /home/vagrant/spe-homework-project/Project/simulations//config_3.xml:2"
par Scenario.node[22].nic.phy80211p decider "<root>...</root> at /home/vagrant/spe-homework-project/Project/simulations//config_3.xml:2"
par Scenario.node[22].nic.phy80211p minPowerLevel -110dBm
attr unit dBm
par Scenario.node[22].nic.phy80211p timeRXToTX 0s
attr unit s
par Scenario.node[22].nic.phy80211p timeRXToSleep 0s
attr unit s
par Scenario.node[22].nic.phy80211p timeTXToRX 0s
attr unit s
par Scenario.node[22].nic.phy80211p timeTXToSleep 0s
attr unit s
par Scenario.node[22].nic.phy80211p timeSleepToRX 0s
attr unit s
par Scenario.node[22].nic.phy80211p timeSleepToTX 0s
attr unit s
par Scenario.node[22].nic.phy80211p initialRadioState 0
par Scenario.node[22].nic.phy80211p radioMinAtt 1
par Scenario.node[22].nic.phy80211p radioMaxAtt 0
par Scenario.node[22].nic.phy80211p nbRadioChannels 1
par Scenario.node[22].nic.phy80211p initialRadioChannel 0
par Scenario.node[22].nic.phy80211p ccaThreshold -65dBm
attr unit dBm
par Scenario.node[22].nic.phy80211p collectCollisionStatistics false
par Scenario.node[22].nic.phy80211p allowTxDuringRx false
scalar Scenario.node[22].nic.phy80211p busyTime 0.0055894468085108
par Scenario.node[22].nic.mac1609_4 typename "\"org.car2x.veins.modules.mac.ieee80211p.Mac1609_4\""
par Scenario.node[22].nic.mac1609_4 notAffectedByHostState false
par Scenario.node[22].nic.mac1609_4 headerLength 0bit
attr unit bit
par Scenario.node[22].nic.mac1609_4 address "\"auto\""
par Scenario.node[22].nic.mac1609_4 useServiceChannel false
par Scenario.node[22].nic.mac1609_4 serviceChannel 1
par Scenario.node[22].nic.mac1609_4 bitrate 6000000bps
attr unit bps
par Scenario.node[22].nic.mac1609_4 syncOffset 0.0003s
attr unit s
par Scenario.node[22].nic.mac1609_4 txPower 20mW
attr unit mW
par Scenario.node[22].nic.mac1609_4 queueSize 0
par Scenario.node[22].nic.mac1609_4 dot11RTSThreshold 12000bit
attr unit bit
par Scenario.node[22].nic.mac1609_4 dot11ShortRetryLimit 7
par Scenario.node[22].nic.mac1609_4 dot11LongRetryLimit 4
par Scenario.node[22].nic.mac1609_4 ackLength 112bit
attr unit bit
par Scenario.node[22].nic.mac1609_4 useAcks false
par Scenario.node[22].nic.mac1609_4 frameErrorRate 0
par Scenario.node[22].nic.mac1609_4 ackErrorRate 0
scalar Scenario.node[22].nic.mac1609_4 ReceivedUnicastPackets 0
scalar Scenario.node[22].nic.mac1609_4 ReceivedBroadcasts 1128
scalar Scenario.node[22].nic.mac1609_4 SentPackets 235
scalar Scenario.node[22].nic.mac1609_4 SentAcknowledgements 0
scalar Scenario.node[22].nic.mac1609_4 RetriesExceeded 0
scalar Scenario.node[22].nic.mac1609_4 SNIRLostPackets 135
scalar Scenario.node[22].nic.mac1609_4 RXTXLostPackets 0
scalar Scenario.node[22].nic.mac1609_4 TotalLostPackets 135
scalar Scenario.node[22].nic.mac1609_4 DroppedPacketsInMac 0
scalar Scenario.node[22].nic.mac1609_4 TooLittleTime 0
scalar Scenario.node[22].nic.mac1609_4 TimesIntoBackoff 235
scalar Scenario.node[22].nic.mac1609_4 SlotsBackoff 338
scalar Scenario.node[22].nic.mac1609_4 NumInternalContention 0
scalar Scenario.node[22].nic.mac1609_4 totalBusyTime 0.156027
scalar Scenario.node[22].nic.mac1609_4 retriesExceeded:count 0
attr recordingmode count
attr source org_car2x_veins_modules_mac_sigRetriesExceeded
scalar Scenario.node[22].nic.mac1609_4 sentAcks:count 0
attr recordingmode count
attr source org_car2x_veins_modules_mac_sigSentAck
scalar Scenario.node[22].nic.mac1609_4 sentPackets:count 235
attr recordingmode count
attr source org_car2x_veins_modules_mac_sigSentPacket
scalar Scenario.node[22].nic.mac1609_4 collisions:count 0
attr recordingmode count
attr source org_car2x_veins_modules_mac_sigCollision
scalar Scenario.node[22].nic.mac1609_4 channelBusy:timeavg 0.0066394468085107
attr recordingmode timeavg
attr source org_car2x_veins_modules_mac_sigChannelBusy
par Scenario.node[22].nic typename "\"org.car2x.veins.modules.nic.Nic80211p\""
par Scenario.node[22].nic connectionManagerName "\"connectionManager\""
par Scenario.node[22].veinsmobility typename "\"org.car2x.veins.modules.mobility.traci.TraCIMobility\""
par Scenario.node[22].veinsmobility notAffectedByHostState true
par Scenario.node[22].veinsmobility x 0
par Scenario.node[22].veinsmobility y 0
par Scenario.node[22].veinsmobility z 1.895
par Scenario.node[22].veinsmobility xOrientation 1
par Scenario.node[22].veinsmobility yOrientation 0
par Scenario.node[22].veinsmobility zOrientation 0
par Scenario.node[22].veinsmobility hostPositionOffset 0m
attr unit m
par Scenario.node[22].veinsmobility setHostSpeed false
par Scenario.node[22].veinsmobility accidentCount 0
par Scenario.node[22].veinsmobility accidentStart 30.3604s
attr unit s
par Scenario.node[22].veinsmobility accidentDuration "uniform(30s, 60s)"
attr unit s
par Scenario.node[22].veinsmobility accidentInterval "uniform(30s, 60s)"
attr unit s
scalar Scenario.node[22].veinsmobility startTime 44.1
scalar Scenario.node[22].veinsmobility totalTime 23.4
scalar Scenario.node[22].veinsmobility stopTime 67.6
scalar Scenario.node[22].veinsmobility minSpeed 0.2570972159754
scalar Scenario.node[22].veinsmobility maxSpeed 16.658134958618
scalar Scenario.node[22].veinsmobility totalDistance 281.60031965879
scalar Scenario.node[22].veinsmobility totalCO2Emission 106.58478465776
par Scenario.node[22] typename "\"org.car2x.veins.nodes.Car\""
par Scenario.node[22] applType "\"TraCIDemo11p\""
par Scenario.node[22] nicType "\"Nic80211p\""
par Scenario.node[22] veinsmobilityType "\"org.car2x.veins.modules.mobility.traci.TraCIMobility\""
par Scenario.node[25].appl typename "\"org.car2x.veins.modules.application.traci.TraCIDemo11p\""
par Scenario.node[25].appl headerLength 80bit
attr unit bit
par Scenario.node[25].appl sendBeacons true
par Scenario.node[25].appl beaconLengthBits 256bit
attr unit bit
par Scenario.node[25].appl beaconUserPriority 7
par Scenario.node[25].appl beaconInterval 0.1s
attr unit s
par Scenario.node[25].appl dataLengthBits 1024bit
attr unit bit
par Scenario.node[25].appl dataOnSch false
par Scenario.node[25].appl dataUserPriority 7
par Scenario.node[25].appl avoidBeaconSynchronization true
par Scenario.node[25].appl sendWSA false
par Scenario.node[25].appl wsaLengthBits 250bit
attr unit bit
par Scenario.node[25].appl wsaInterval 1s
attr unit s
scalar Scenario.node[25].appl generatedWSMs 0
scalar Scenario.node[25].appl receivedWSMs 0
scalar Scenario.node[25].appl generatedBSMs 266
scalar Scenario.node[25].appl receivedBSMs 2160
scalar Scenario.node[25].appl generatedWSAs 0
scalar Scenario.node[25].appl receivedWSAs 0
par Scenario.node[25].nic.phy80211p typename "\"org.car2x.veins.modules.phy.PhyLayer80211p\""
par Scenario.node[25].nic.phy80211p recordStats false
par Scenario.node[25].nic.phy80211p usePropagationDelay true
par Scenario.node[25].nic.phy80211p noiseFloor -98dBm
attr unit dBm
par Scenario.node[25].nic.phy80211p useNoiseFloor true
par Scenario.node[25].nic.phy80211p antenna "<root>...</root> at content:1"
par Scenario.node[25].nic.phy80211p antennaOffsetX 0m
attr unit m
par Scenario.node[25].nic.phy80211p antennaOffsetY 0m
attr unit m
par Scenario.node[25].nic.phy80211p antennaOffsetZ 1.895m
attr unit m
par Scenario.node[25].nic.phy80211p antennaOffsetYaw 0rad
attr unit rad
par Scenario.node[25].nic.phy80211p analogueModels "<root>...</root> at /home/vagrant/spe-homework-project/Project/simulations//config_3.xml:2"
par Scenario.node[25].nic.phy80211p decider "<root>...</root> at /home/vagrant/spe-homework-project/Project/simulations//config_3.xml:2"
par Scenario.node[25].nic.phy80211p minPowerLevel -110dBm
attr unit dBm
par Scenario.node[25].nic.phy80211p timeRXToTX 0s
attr unit s
par Scenario.node[25].nic.phy80211p timeRXToSleep 0s
attr unit s
par Scenario.node[25].nic.phy80211p timeTXToRX 0s
attr unit s
par Scenario.node[25].nic.phy80211p timeTXToSleep 0s
attr unit s
par Scenario.node[25].nic.phy80211p timeSleepToRX 0s
attr unit s
par Scenario.node[25].nic.phy80211p timeSleepToTX 0s
attr unit s
par Scenario.node[25].nic.phy80211p initialRadioState 0
par Scenario.node[25].nic.phy80211p radioMinAtt 1
par Scenario.node[25].nic.phy80211p radioMaxAtt 0
par Scenario.node[25].nic.phy80211p nbRadioChannels 1
par Scenario.node[25].nic.phy80211p initialRadioChannel 0
par Scenario.node[25].nic.phy80211p ccaThreshold -65dBm
attr unit dBm
par Scenario.node[25].nic.phy80211p collectCollisionStatistics false
par Scenario.node[25].nic.phy80211p allowTxDuringRx false
scalar Scenario.node[25].nic.phy80211p busyTime 0.00962977443609
par Scenario.node[25].nic.mac1609_4 typename "\"org.car2x.veins.modules.mac.ieee80211p.Mac1609_4\""
par Scenario.node[25].nic.mac1609_4 notAffectedByHostState false
par Scenario.node[25].nic.mac1609_4 headerLength 0bit
attr unit bit
par Scenario.node[25].nic.mac1609_4 address "\"auto\""
par Scenario.node[25].nic.mac1609_4 useServiceChannel false
par Scenario.node[25].nic.mac1609_4 serviceChannel 1
par Scenario.node[25].nic.mac1609_4 bitrate 6000000bps
attr unit bps
par Scenario.node[25].nic.mac1609_4 syncOffset 0.0003s
attr unit s
par Scenario.node[25].nic.mac1609_4 txPower 20mW
attr unit mW
par Scenario.node[25].nic.mac1609_4 queueSize 0
par Scenario.node[25].nic.mac1609_4 dot11RTSThreshold 12000bit
attr unit bit
par Scenario.node[25].nic.mac1609_4 dot11ShortRetryLimit 7
par Scenario.node[25].nic.mac1609_4 dot11LongRetryLimit 4
par Scenario.node[25].nic.mac1609_4 ackLength 112bit
attr unit bit
par Scenario.node[25].nic.mac1609_4 useAcks false
par Scenario.node[25].nic.mac1609_4 frameErrorRate 0
par Scenario.node[25].nic.mac1609_4 ackErrorRate 0
scalar Scenario.node[25].nic.mac1609_4 ReceivedUnicastPackets 0
scalar Scenario.node[25].nic.mac1609_4 ReceivedBroadcasts 2160
scalar Scenario.node[25].nic.mac1609_4 SentPackets 266
scalar Scenario.node[25].nic.mac1609_4 SentAcknowledgements 0
scalar Scenario.node[25].nic.mac1609_4 RetriesExceeded 0
scalar Scenario.node[25].nic.mac1609_4 SNIRLostPackets 303
scalar Scenario.node[25].nic.mac1609_4 RXTXLostPackets 0
scalar Scenario.node[25].nic.mac1609_4 TotalLostPackets 303
scalar Scenario.node[25].nic.mac1609_4 DroppedPacketsInMac 0
scalar Scenario.node[25].nic.mac1609_4 TooLittleTime 0
scalar Scenario.node[25].nic.mac1609_4 TimesIntoBackoff 266
scalar Scenario.node[25].nic.mac1609_4 SlotsBackoff 414
scalar Scenario.node[25].nic.mac1609_4 NumInternalContention 0
scalar Scenario.node[25].nic.mac1609_4 totalBusyTime 0.282834
scalar Scenario.node[25].nic.mac1609_4 retriesExceeded:count 0
attr recordingmode count
attr source org_car2x_veins_modules_mac_sigRetriesExceeded
scalar Scenario.node[25].nic.mac1609_4 sentAcks:count 0
attr recordingmode count
attr source org_car2x_veins_modules_mac_sigSentAck
scalar Scenario.node[25].nic.mac1609_4 sentPackets:count 266
attr recordingmode count
attr source org_car2x_veins_modules_mac_sigSentPacket
scalar Scenario.node[25].nic.mac1609_4 collisions:count 0
attr recordingmode count
attr source org_car2x_veins_modules_mac_sigCollision
scalar Scenario.node[25].nic.mac1609_4 channelBusy:timeavg 0.010632857142857
attr recordingmode timeavg
attr source org_car2x_veins_modules_mac_sigChannelBusy
par Scenario.node[25].nic typename "\"org.car2x.veins.modules.nic.Nic80211p\""
[...]
par Scenario.node[47].nic.phy80211p minPowerLevel -110dBm
attr unit dBm
par Scenario.node[47].nic.phy80211p timeRXToTX 0s
attr unit s
par Scenario.node[47].nic.phy80211p timeRXToSleep 0s
attr unit s
par Scenario.node[47].nic.phy80211p timeTXToRX 0s
attr unit s
par Scenario.node[47].nic.phy80211p timeTXToSleep 0s
attr unit s
par Scenario.node[47].nic.phy80211p timeSleepToRX 0s
attr unit s
par Scenario.node[47].nic.phy80211p timeSleepToTX 0s
attr unit s
par Scenario.node[47].nic.phy80211p initialRadioState 0
par Scenario.node[47].nic.phy80211p radioMinAtt 1
par Scenario.node[47].nic.phy80211p radioMaxAtt 0
par Scenario.node[47].nic.phy80211p nbRadioChannels 1
par Scenario.node[47].nic.phy80211p initialRadioChannel 0
par Scenario.node[47].nic.phy80211p ccaThreshold -65dBm
attr unit dBm
par Scenario.node[47].nic.phy80211p collectCollisionStatistics false
par Scenario.node[47].nic.phy80211p allowTxDuringRx false
scalar Scenario.node[47].nic.phy80211p busyTime 0.01378
par Scenario.node[47].nic.mac1609_4 typename "\"org.car2x.veins.modules.mac.ieee80211p.Mac1609_4\""
par Scenario.node[47].nic.mac1609_4 notAffectedByHostState false
par Scenario.node[47].nic.mac1609_4 headerLength 0bit
attr unit bit
par Scenario.node[47].nic.mac1609_4 address "\"auto\""
par Scenario.node[47].nic.mac1609_4 useServiceChannel false
par Scenario.node[47].nic.mac1609_4 serviceChannel 1
par Scenario.node[47].nic.mac1609_4 bitrate 6000000bps
attr unit bps
par Scenario.node[47].nic.mac1609_4 syncOffset 0.0003s
attr unit s
par Scenario.node[47].nic.mac1609_4 txPower 20mW
attr unit mW
par Scenario.node[47].nic.mac1609_4 queueSize 0
par Scenario.node[47].nic.mac1609_4 dot11RTSThreshold 12000bit
attr unit bit
par Scenario.node[47].nic.mac1609_4 dot11ShortRetryLimit 7
par Scenario.node[47].nic.mac1609_4 dot11LongRetryLimit 4
par Scenario.node[47].nic.mac1609_4 ackLength 112bit
attr unit bit
par Scenario.node[47].nic.mac1609_4 useAcks false
par Scenario.node[47].nic.mac1609_4 frameErrorRate 0
par Scenario.node[47].nic.mac1609_4 ackErrorRate 0
scalar Scenario.node[47].nic.mac1609_4 ReceivedUnicastPackets 0
scalar Scenario.node[47].nic.mac1609_4 ReceivedBroadcasts 677
scalar Scenario.node[47].nic.mac1609_4 SentPackets 56
scalar Scenario.node[47].nic.mac1609_4 SentAcknowledgements 0
scalar Scenario.node[47].nic.mac1609_4 RetriesExceeded 0
scalar Scenario.node[47].nic.mac1609_4 SNIRLostPackets 65
scalar Scenario.node[47].nic.mac1609_4 RXTXLostPackets 0
scalar Scenario.node[47].nic.mac1609_4 TotalLostPackets 65
scalar Scenario.node[47].nic.mac1609_4 DroppedPacketsInMac 0
scalar Scenario.node[47].nic.mac1609_4 TooLittleTime 0
scalar Scenario.node[47].nic.mac1609_4 TimesIntoBackoff 56
scalar Scenario.node[47].nic.mac1609_4 SlotsBackoff 87
scalar Scenario.node[47].nic.mac1609_4 NumInternalContention 0
scalar Scenario.node[47].nic.mac1609_4 totalBusyTime 0.083048
scalar Scenario.node[47].nic.mac1609_4 retriesExceeded:count 0
attr recordingmode count
attr source org_car2x_veins_modules_mac_sigRetriesExceeded
scalar Scenario.node[47].nic.mac1609_4 sentAcks:count 0
attr recordingmode count
attr source org_car2x_veins_modules_mac_sigSentAck
scalar Scenario.node[47].nic.mac1609_4 sentPackets:count 56
attr recordingmode count
attr source org_car2x_veins_modules_mac_sigSentPacket
scalar Scenario.node[47].nic.mac1609_4 collisions:count 0
attr recordingmode count
attr source org_car2x_veins_modules_mac_sigCollision
scalar Scenario.node[47].nic.mac1609_4 channelBusy:timeavg 0.01483
attr recordingmode timeavg
attr source org_car2x_veins_modules_mac_sigChannelBusy
par Scenario.node[47].nic typename "\"org.car2x.veins.modules.nic.Nic80211p\""
par Scenario.node[47].nic connectionManagerName "\"connectionManager\""
par Scenario.node[47].veinsmobility typename "\"org.car2x.veins.modules.mobility.traci.TraCIMobility\""
par Scenario.node[47].veinsmobility notAffectedByHostState true
par Scenario.node[47].veinsmobility x 0
par Scenario.node[47].veinsmobility y 0
par Scenario.node[47].veinsmobility z 1.895
par Scenario.node[47].veinsmobility xOrientation 1
par Scenario.node[47].veinsmobility yOrientation 0
par Scenario.node[47].veinsmobility zOrientation 0
par Scenario.node[47].veinsmobility hostPositionOffset 0m
attr unit m
par Scenario.node[47].veinsmobility setHostSpeed false
par Scenario.node[47].veinsmobility accidentCount 0
par Scenario.node[47].veinsmobility accidentStart 49.0873s
attr unit s
par Scenario.node[47].veinsmobility accidentDuration "uniform(30s, 60s)"
attr unit s
par Scenario.node[47].veinsmobility accidentInterval "uniform(30s, 60s)"
attr unit s
scalar Scenario.node[47].veinsmobility startTime 94.4
scalar Scenario.node[47].veinsmobility totalTime 5.6
scalar Scenario.node[47].veinsmobility stopTime 100
scalar Scenario.node[47].veinsmobility minSpeed 0.25665144977882
scalar Scenario.node[47].veinsmobility maxSpeed 11.472884557296
scalar Scenario.node[47].veinsmobility totalDistance 33.26012478082
scalar Scenario.node[47].veinsmobility totalCO2Emission 24.049715853794
par Scenario.node[47] typename "\"org.car2x.veins.nodes.Car\""
par Scenario.node[47] applType "\"TraCIDemo11p\""
par Scenario.node[47] nicType "\"Nic80211p\""
par Scenario.node[47] veinsmobilityType "\"org.car2x.veins.modules.mobility.traci.TraCIMobility\""
par Scenario.node[48].appl typename "\"org.car2x.veins.modules.application.traci.TraCIDemo11p\""
par Scenario.node[48].appl headerLength 80bit
attr unit bit
par Scenario.node[48].appl sendBeacons true
par Scenario.node[48].appl beaconLengthBits 256bit
attr unit bit
par Scenario.node[48].appl beaconUserPriority 7
par Scenario.node[48].appl beaconInterval 0.1s
attr unit s
par Scenario.node[48].appl dataLengthBits 1024bit
attr unit bit
par Scenario.node[48].appl dataOnSch false
par Scenario.node[48].appl dataUserPriority 7
par Scenario.node[48].appl avoidBeaconSynchronization true
par Scenario.node[48].appl sendWSA false
par Scenario.node[48].appl wsaLengthBits 250bit
attr unit bit
par Scenario.node[48].appl wsaInterval 1s
attr unit s
scalar Scenario.node[48].appl generatedWSMs 0
scalar Scenario.node[48].appl receivedWSMs 0
scalar Scenario.node[48].appl generatedBSMs 39
scalar Scenario.node[48].appl receivedBSMs 408
scalar Scenario.node[48].appl generatedWSAs 0
scalar Scenario.node[48].appl receivedWSAs 0
par Scenario.node[48].nic.phy80211p typename "\"org.car2x.veins.modules.phy.PhyLayer80211p\""
par Scenario.node[48].nic.phy80211p recordStats false
par Scenario.node[48].nic.phy80211p usePropagationDelay true
par Scenario.node[48].nic.phy80211p noiseFloor -98dBm
attr unit dBm
par Scenario.node[48].nic.phy80211p useNoiseFloor true
par Scenario.node[48].nic.phy80211p antenna "<root>...</root> at content:1"
par Scenario.node[48].nic.phy80211p antennaOffsetX 0m
attr unit m
par Scenario.node[48].nic.phy80211p antennaOffsetY 0m
attr unit m
par Scenario.node[48].nic.phy80211p antennaOffsetZ 1.895m
attr unit m
par Scenario.node[48].nic.phy80211p antennaOffsetYaw 0rad
attr unit rad
par Scenario.node[48].nic.phy80211p analogueModels "<root>...</root> at /home/vagrant/spe-homework-project/Project/simulations//config_3.xml:2"
par Scenario.node[48].nic.phy80211p decider "<root>...</root> at /home/vagrant/spe-homework-project/Project/simulations//config_3.xml:2"
par Scenario.node[48].nic.phy80211p minPowerLevel -110dBm
attr unit dBm
par Scenario.node[48].nic.phy80211p timeRXToTX 0s
attr unit s
par Scenario.node[48].nic.phy80211p timeRXToSleep 0s
attr unit s
par Scenario.node[48].nic.phy80211p timeTXToRX 0s
attr unit s
par Scenario.node[48].nic.phy80211p timeTXToSleep 0s
attr unit s
par Scenario.node[48].nic.phy80211p timeSleepToRX 0s
attr unit s
par Scenario.node[48].nic.phy80211p timeSleepToTX 0s
attr unit s
par Scenario.node[48].nic.phy80211p initialRadioState 0
par Scenario.node[48].nic.phy80211p radioMinAtt 1
par Scenario.node[48].nic.phy80211p radioMaxAtt 0
par Scenario.node[48].nic.phy80211p nbRadioChannels 1
par Scenario.node[48].nic.phy80211p initialRadioChannel 0
par Scenario.node[48].nic.phy80211p ccaThreshold -65dBm
attr unit dBm
par Scenario.node[48].nic.phy80211p collectCollisionStatistics false
par Scenario.node[48].nic.phy80211p allowTxDuringRx false
scalar Scenario.node[48].nic.phy80211p busyTime 0.0116
par Scenario.node[48].nic.mac1609_4 typename "\"org.car2x.veins.modules.mac.ieee80211p.Mac1609_4\""
par Scenario.node[48].nic.mac1609_4 notAffectedByHostState false
par Scenario.node[48].nic.mac1609_4 headerLength 0bit
attr unit bit
par Scenario.node[48].nic.mac1609_4 address "\"auto\""
par Scenario.node[48].nic.mac1609_4 useServiceChannel false
par Scenario.node[48].nic.mac1609_4 serviceChannel 1
par Scenario.node[48].nic.mac1609_4 bitrate 6000000bps
attr unit bps
par Scenario.node[48].nic.mac1609_4 syncOffset 0.0003s
attr unit s
par Scenario.node[48].nic.mac1609_4 txPower 20mW
attr unit mW
par Scenario.node[48].nic.mac1609_4 queueSize 0
par Scenario.node[48].nic.mac1609_4 dot11RTSThreshold 12000bit
attr unit bit
par Scenario.node[48].nic.mac1609_4 dot11ShortRetryLimit 7
par Scenario.node[48].nic.mac1609_4 dot11LongRetryLimit 4
par Scenario.node[48].nic.mac1609_4 ackLength 112bit
attr unit bit
par Scenario.node[48].nic.mac1609_4 useAcks false
par Scenario.node[48].nic.mac1609_4 frameErrorRate 0
par Scenario.node[48].nic.mac1609_4 ackErrorRate 0
scalar Scenario.node[48].nic.mac1609_4 ReceivedUnicastPackets 0
scalar Scenario.node[48].nic.mac1609_4 ReceivedBroadcasts 408
scalar Scenario.node[48].nic.mac1609_4 SentPackets 39
scalar Scenario.node[48].nic.mac1609_4 SentAcknowledgements 0
scalar Scenario.node[48].nic.mac1609_4 RetriesExceeded 0
scalar Scenario.node[48].nic.mac1609_4 SNIRLostPackets 27
scalar Scenario.node[48].nic.mac1609_4 RXTXLostPackets 0
scalar Scenario.node[48].nic.mac1609_4 TotalLostPackets 27
scalar Scenario.node[48].nic.mac1609_4 DroppedPacketsInMac 0
scalar Scenario.node[48].nic.mac1609_4 TooLittleTime 0
scalar Scenario.node[48].nic.mac1609_4 TimesIntoBackoff 39
scalar Scenario.node[48].nic.mac1609_4 SlotsBackoff 56
scalar Scenario.node[48].nic.mac1609_4 NumInternalContention 0
scalar Scenario.node[48].nic.mac1609_4 totalBusyTime 0.049335
scalar Scenario.node[48].nic.mac1609_4 retriesExceeded:count 0
attr recordingmode count
attr source org_car2x_veins_modules_mac_sigRetriesExceeded
scalar Scenario.node[48].nic.mac1609_4 sentAcks:count 0
attr recordingmode count
attr source org_car2x_veins_modules_mac_sigSentAck
scalar Scenario.node[48].nic.mac1609_4 sentPackets:count 39
attr recordingmode count
attr source org_car2x_veins_modules_mac_sigSentPacket
scalar Scenario.node[48].nic.mac1609_4 collisions:count 0
attr recordingmode count
attr source org_car2x_veins_modules_mac_sigCollision
scalar Scenario.node[48].nic.mac1609_4 channelBusy:timeavg 0.01265
attr recordingmode timeavg
attr source org_car2x_veins_modules_mac_sigChannelBusy
par Scenario.node[48].nic typename "\"org.car2x.veins.modules.nic.Nic80211p\""
par Scenario.node[48].nic connectionManagerName "\"connectionManager\""
par Scenario.node[48].veinsmobility typename "\"org.car2x.veins.modules.mobility.traci.TraCIMobility\""
par Scenario.node[48].veinsmobility notAffectedByHostState true
par Scenario.node[48].veinsmobility x 0
par Scenario.node[48].veinsmobility y 0
par Scenario.node[48].veinsmobility z 1.895
par Scenario.node[48].veinsmobility xOrientation 1
par Scenario.node[48].veinsmobility yOrientation 0
par Scenario.node[48].veinsmobility zOrientation 0
par Scenario.node[48].veinsmobility hostPositionOffset 0m
attr unit m
par Scenario.node[48].veinsmobility setHostSpeed false
par Scenario.node[48].veinsmobility accidentCount 0
par Scenario.node[48].veinsmobility accidentStart 57.8365s
attr unit s
par Scenario.node[48].veinsmobility accidentDuration "uniform(30s, 60s)"
attr unit s
par Scenario.node[48].veinsmobility accidentInterval "uniform(30s, 60s)"
attr unit s
scalar Scenario.node[48].veinsmobility startTime 96.1
scalar Scenario.node[48].veinsmobility totalTime 3.9
scalar Scenario.node[48].veinsmobility stopTime 100
scalar Scenario.node[48].veinsmobility minSpeed 0.25236435945123
scalar Scenario.node[48].veinsmobility maxSpeed 8.1294539158366
scalar Scenario.node[48].veinsmobility totalDistance 16.828934362596
scalar Scenario.node[48].veinsmobility totalCO2Emission 13.239339888962
par Scenario.node[48] typename "\"org.car2x.veins.nodes.Car\""
par Scenario.node[48] applType "\"TraCIDemo11p\""
par Scenario.node[48] nicType "\"Nic80211p\""
par Scenario.node[48] veinsmobilityType "\"org.car2x.veins.modules.mobility.traci.TraCIMobility\""
par Scenario.node[49].appl typename "\"org.car2x.veins.modules.application.traci.TraCIDemo11p\""
par Scenario.node[49].appl headerLength 80bit
attr unit bit
par Scenario.node[49].appl sendBeacons true
par Scenario.node[49].appl beaconLengthBits 256bit
attr unit bit
par Scenario.node[49].appl beaconUserPriority 7
par Scenario.node[49].appl beaconInterval 0.1s
attr unit s
par Scenario.node[49].appl dataLengthBits 1024bit
attr unit bit
par Scenario.node[49].appl dataOnSch false
par Scenario.node[49].appl dataUserPriority 7
par Scenario.node[49].appl avoidBeaconSynchronization true
par Scenario.node[49].appl sendWSA false
par Scenario.node[49].appl wsaLengthBits 250bit
attr unit bit
par Scenario.node[49].appl wsaInterval 1s
attr unit s
scalar Scenario.node[49].appl generatedWSMs 0
scalar Scenario.node[49].appl receivedWSMs 0
scalar Scenario.node[49].appl generatedBSMs 2
scalar Scenario.node[49].appl receivedBSMs 28
scalar Scenario.node[49].appl generatedWSAs 0
scalar Scenario.node[49].appl receivedWSAs 0
par Scenario.node[49].nic.phy80211p typename "\"org.car2x.veins.modules.phy.PhyLayer80211p\""
par Scenario.node[49].nic.phy80211p recordStats false
par Scenario.node[49].nic.phy80211p usePropagationDelay true
par Scenario.node[49].nic.phy80211p noiseFloor -98dBm
attr unit dBm
par Scenario.node[49].nic.phy80211p useNoiseFloor true
par Scenario.node[49].nic.phy80211p antenna "<root>...</root> at content:1"
par Scenario.node[49].nic.phy80211p antennaOffsetX 0m
attr unit m
par Scenario.node[49].nic.phy80211p antennaOffsetY 0m
attr unit m
par Scenario.node[49].nic.phy80211p antennaOffsetZ 1.895m
attr unit m
par Scenario.node[49].nic.phy80211p antennaOffsetYaw 0rad
attr unit rad
par Scenario.node[49].nic.phy80211p analogueModels "<root>...</root> at /home/vagrant/spe-homework-project/Project/simulations//config_3.xml:2"
par Scenario.node[49].nic.phy80211p decider "<root>...</root> at /home/vagrant/spe-homework-project/Project/simulations//config_3.xml:2"
par Scenario.node[49].nic.phy80211p minPowerLevel -110dBm
attr unit dBm
par Scenario.node[49].nic.phy80211p timeRXToTX 0s
attr unit s
par Scenario.node[49].nic.phy80211p timeRXToSleep 0s
attr unit s
par Scenario.node[49].nic.phy80211p timeTXToRX 0s
attr unit s
par Scenario.node[49].nic.phy80211p timeTXToSleep 0s
attr unit s
par Scenario.node[49].nic.phy80211p timeSleepToRX 0s
attr unit s
par Scenario.node[49].nic.phy80211p timeSleepToTX 0s
attr unit s
par Scenario.node[49].nic.phy80211p initialRadioState 0
par Scenario.node[49].nic.phy80211p radioMinAtt 1
par Scenario.node[49].nic.phy80211p radioMaxAtt 0
par Scenario.node[49].nic.phy80211p nbRadioChannels 1
par Scenario.node[49].nic.phy80211p initialRadioChannel 0
par Scenario.node[49].nic.phy80211p ccaThreshold -65dBm
attr unit dBm
par Scenario.node[49].nic.phy80211p collectCollisionStatistics false
par Scenario.node[49].nic.phy80211p allowTxDuringRx false
scalar Scenario.node[49].nic.phy80211p busyTime 0.01456
par Scenario.node[49].nic.mac1609_4 typename "\"org.car2x.veins.modules.mac.ieee80211p.Mac1609_4\""
par Scenario.node[49].nic.mac1609_4 notAffectedByHostState false
par Scenario.node[49].nic.mac1609_4 headerLength 0bit
attr unit bit
par Scenario.node[49].nic.mac1609_4 address "\"auto\""
par Scenario.node[49].nic.mac1609_4 useServiceChannel false
par Scenario.node[49].nic.mac1609_4 serviceChannel 1
par Scenario.node[49].nic.mac1609_4 bitrate 6000000bps
attr unit bps
par Scenario.node[49].nic.mac1609_4 syncOffset 0.0003s
attr unit s
par Scenario.node[49].nic.mac1609_4 txPower 20mW
attr unit mW
par Scenario.node[49].nic.mac1609_4 queueSize 0
par Scenario.node[49].nic.mac1609_4 dot11RTSThreshold 12000bit
attr unit bit
par Scenario.node[49].nic.mac1609_4 dot11ShortRetryLimit 7
par Scenario.node[49].nic.mac1609_4 dot11LongRetryLimit 4
par Scenario.node[49].nic.mac1609_4 ackLength 112bit
attr unit bit
par Scenario.node[49].nic.mac1609_4 useAcks false
par Scenario.node[49].nic.mac1609_4 frameErrorRate 0
par Scenario.node[49].nic.mac1609_4 ackErrorRate 0
scalar Scenario.node[49].nic.mac1609_4 ReceivedUnicastPackets 0
scalar Scenario.node[49].nic.mac1609_4 ReceivedBroadcasts 28
scalar Scenario.node[49].nic.mac1609_4 SentPackets 2
scalar Scenario.node[49].nic.mac1609_4 SentAcknowledgements 0
scalar Scenario.node[49].nic.mac1609_4 RetriesExceeded 0
scalar Scenario.node[49].nic.mac1609_4 SNIRLostPackets 0
scalar Scenario.node[49].nic.mac1609_4 RXTXLostPackets 0
scalar Scenario.node[49].nic.mac1609_4 TotalLostPackets 0
scalar Scenario.node[49].nic.mac1609_4 DroppedPacketsInMac 0
scalar Scenario.node[49].nic.mac1609_4 TooLittleTime 0
scalar Scenario.node[49].nic.mac1609_4 TimesIntoBackoff 2
scalar Scenario.node[49].nic.mac1609_4 SlotsBackoff 6
scalar Scenario.node[49].nic.mac1609_4 NumInternalContention 0
scalar Scenario.node[49].nic.mac1609_4 totalBusyTime 0.003122
scalar Scenario.node[49].nic.mac1609_4 retriesExceeded:count 0
attr recordingmode count
attr source org_car2x_veins_modules_mac_sigRetriesExceeded
scalar Scenario.node[49].nic.mac1609_4 sentAcks:count 0
attr recordingmode count
attr source org_car2x_veins_modules_mac_sigSentAck
scalar Scenario.node[49].nic.mac1609_4 sentPackets:count 2
attr recordingmode count
attr source org_car2x_veins_modules_mac_sigSentPacket
scalar Scenario.node[49].nic.mac1609_4 collisions:count 0
attr recordingmode count
attr source org_car2x_veins_modules_mac_sigCollision
scalar Scenario.node[49].nic.mac1609_4 channelBusy:timeavg 0.01561
attr recordingmode timeavg
attr source org_car2x_veins_modules_mac_sigChannelBusy
par Scenario.node[49].nic typename "\"org.car2x.veins.modules.nic.Nic80211p\""
par Scenario.node[49].nic connectionManagerName "\"connectionManager\""
par Scenario.node[49].veinsmobility typename "\"org.car2x.veins.modules.mobility.traci.TraCIMobility\""
par Scenario.node[49].veinsmobility notAffectedByHostState true
par Scenario.node[49].veinsmobility x 0
par Scenario.node[49].veinsmobility y 0
par Scenario.node[49].veinsmobility z 1.895
par Scenario.node[49].veinsmobility xOrientation 1
par Scenario.node[49].veinsmobility yOrientation 0
par Scenario.node[49].veinsmobility zOrientation 0
par Scenario.node[49].veinsmobility hostPositionOffset 0m
attr unit m
par Scenario.node[49].veinsmobility setHostSpeed false
par Scenario.node[49].veinsmobility accidentCount 0
par Scenario.node[49].veinsmobility accidentStart 51.6115s
attr unit s
par Scenario.node[49].veinsmobility accidentDuration "uniform(30s, 60s)"
attr unit s
par Scenario.node[49].veinsmobility accidentInterval "uniform(30s, 60s)"
attr unit s
scalar Scenario.node[49].veinsmobility startTime 99.8
scalar Scenario.node[49].veinsmobility totalTime 0.2
scalar Scenario.node[49].veinsmobility stopTime 100
scalar Scenario.node[49].veinsmobility minSpeed 0.25998777836934
scalar Scenario.node[49].veinsmobility maxSpeed 0.49880336986357
scalar Scenario.node[49].veinsmobility totalDistance 0.075879114823294
scalar Scenario.node[49].veinsmobility totalCO2Emission 0.1421157811783
par Scenario.node[49] typename "\"org.car2x.veins.nodes.Car\""
par Scenario.node[49] applType "\"TraCIDemo11p\""
par Scenario.node[49] nicType "\"Nic80211p\""
par Scenario.node[49] veinsmobilityType "\"org.car2x.veins.modules.mobility.traci.TraCIMobility\""
par Scenario typename "\"org.car2x.veins.nodes.Scenario\""
par Scenario playgroundSizeX 600m
attr unit m
par Scenario playgroundSizeY 600m
attr unit m
par Scenario playgroundSizeZ 50m
attr unit m

