version 3
run Scenario5-0-20260628-09:20:40-3026
attr configname Scenario5
attr datetime 20260628-09:20:40
attr datetimef 20260628-092040
attr experiment Scenario5
attr inifile omnetpp.ini
attr iterationvars ""
attr iterationvarsd ""
attr iterationvarsf ""
attr measurement ""
attr network org.car2x.veins.nodes.Scenario
attr processid 3026
attr repetition 0
attr replication #0
attr resultdir results
attr runnumber 0
attr seedset 0
config image-path ../../../veins/images
config *.playgroundSizeX 1100m
config *.playgroundSizeY 200m
config *.playgroundSizeZ 50m
config extends Scenario2
config *.manager.launchConfig "xmldoc(\"straight_road.launchd.xml\")"
config description "Two-Ray Ground (Radio bouncing off asphalt)"
config *.annotations.draw false
config *.**.nic.phy80211p.decider "xmldoc(\"config_2.xml\")"
config *.**.nic.phy80211p.analogueModels "xmldoc(\"config_2.xml\")"
config repeat 10
config seed-set 0
config network org.car2x.veins.nodes.Scenario
config sim-time-limit 100s
config *.playgroundSizeX 600m
config *.playgroundSizeY 600m
config *.playgroundSizeZ 50m
config *.manager.updateInterval 0.1s
config *.manager.host "\"localhost\""
config *.manager.port 9999
config *.manager.autoShutdown true
config *.manager.launchConfig "xmldoc(\"simulation.launchd.xml\")"
config *.node[*].veinsmobility.x 0
config *.node[*].veinsmobility.y 0
config *.node[*].veinsmobility.z 1.895
config *.node[*].applType "\"TraCIDemo11p\""
config *.node[*].appl.headerLength "80 bit"
config *.node[*].appl.sendBeacons true
config *.node[*].appl.dataOnSch false
config *.node[*].appl.beaconInterval 0.1s
config *.connectionManager.sendDirect true
config *.connectionManager.maxInterfDist 500m
config *.connectionManager.drawMaxIntfDist false
config *.**.nic.mac1609_4.useServiceChannel false
config *.**.nic.mac1609_4.txPower 20mW
config *.**.nic.mac1609_4.bitrate 6Mbps
config *.**.nic.phy80211p.minPowerLevel -110dBm
config *.**.nic.phy80211p.useNoiseFloor true
config *.**.nic.phy80211p.noiseFloor -98dBm
config *.**.nic.phy80211p.usePropagationDelay true
config **.vector-recording true
config **.scalar-recording true
config *.**.nic.phy80211p.*.vector-recording true
config *.**.nic.mac1609_4.*.vector-recording true
config **.rcvdPower:vector.vector-recording true
config **.snir:vector.vector-recording true

par Scenario.node[1].appl typename "\"org.car2x.veins.modules.application.traci.TraCIDemo11p\""
par Scenario.node[1].appl headerLength 80bit
attr unit bit
par Scenario.node[1].appl sendBeacons true
par Scenario.node[1].appl beaconLengthBits 256bit
attr unit bit
par Scenario.node[1].appl beaconUserPriority 7
par Scenario.node[1].appl beaconInterval 0.1s
attr unit s
par Scenario.node[1].appl dataLengthBits 1024bit
attr unit bit
par Scenario.node[1].appl dataOnSch false
par Scenario.node[1].appl dataUserPriority 7
par Scenario.node[1].appl avoidBeaconSynchronization true
par Scenario.node[1].appl sendWSA false
par Scenario.node[1].appl wsaLengthBits 250bit
attr unit bit
par Scenario.node[1].appl wsaInterval 1s
attr unit s
scalar Scenario.node[1].appl generatedWSMs 0
scalar Scenario.node[1].appl receivedWSMs 0
scalar Scenario.node[1].appl generatedBSMs 721
scalar Scenario.node[1].appl receivedBSMs 13645
scalar Scenario.node[1].appl generatedWSAs 0
scalar Scenario.node[1].appl receivedWSAs 0
par Scenario.node[1].nic.phy80211p typename "\"org.car2x.veins.modules.phy.PhyLayer80211p\""
par Scenario.node[1].nic.phy80211p recordStats false
par Scenario.node[1].nic.phy80211p usePropagationDelay true
par Scenario.node[1].nic.phy80211p noiseFloor -98dBm
attr unit dBm
par Scenario.node[1].nic.phy80211p useNoiseFloor true
par Scenario.node[1].nic.phy80211p antenna "<root>...</root> at content:1"
par Scenario.node[1].nic.phy80211p antennaOffsetX 0m
attr unit m
par Scenario.node[1].nic.phy80211p antennaOffsetY 0m
attr unit m
par Scenario.node[1].nic.phy80211p antennaOffsetZ 1.895m
attr unit m
par Scenario.node[1].nic.phy80211p antennaOffsetYaw 0rad
attr unit rad
par Scenario.node[1].nic.phy80211p analogueModels "<root>...</root> at /home/vagrant/spe-homework-project/Project/simulations//config_2.xml:2"
par Scenario.node[1].nic.phy80211p decider "<root>...</root> at /home/vagrant/spe-homework-project/Project/simulations//config_2.xml:2"
par Scenario.node[1].nic.phy80211p minPowerLevel -110dBm
attr unit dBm
par Scenario.node[1].nic.phy80211p timeRXToTX 0s
attr unit s
par Scenario.node[1].nic.phy80211p timeRXToSleep 0s
attr unit s
par Scenario.node[1].nic.phy80211p timeTXToRX 0s
attr unit s
par Scenario.node[1].nic.phy80211p timeTXToSleep 0s
attr unit s
par Scenario.node[1].nic.phy80211p timeSleepToRX 0s
attr unit s
par Scenario.node[1].nic.phy80211p timeSleepToTX 0s
attr unit s
par Scenario.node[1].nic.phy80211p initialRadioState 0
par Scenario.node[1].nic.phy80211p radioMinAtt 1
par Scenario.node[1].nic.phy80211p radioMaxAtt 0
par Scenario.node[1].nic.phy80211p nbRadioChannels 1
par Scenario.node[1].nic.phy80211p initialRadioChannel 0
par Scenario.node[1].nic.phy80211p ccaThreshold -65dBm
attr unit dBm
par Scenario.node[1].nic.phy80211p collectCollisionStatistics false
par Scenario.node[1].nic.phy80211p allowTxDuringRx false
scalar Scenario.node[1].nic.phy80211p busyTime 0.020137919556177
par Scenario.node[1].nic.mac1609_4 typename "\"org.car2x.veins.modules.mac.ieee80211p.Mac1609_4\""
par Scenario.node[1].nic.mac1609_4 notAffectedByHostState false
par Scenario.node[1].nic.mac1609_4 headerLength 0bit
attr unit bit
par Scenario.node[1].nic.mac1609_4 address "\"auto\""
par Scenario.node[1].nic.mac1609_4 useServiceChannel false
par Scenario.node[1].nic.mac1609_4 serviceChannel 1
par Scenario.node[1].nic.mac1609_4 bitrate 6000000bps
attr unit bps
par Scenario.node[1].nic.mac1609_4 syncOffset 0.0003s
attr unit s
par Scenario.node[1].nic.mac1609_4 txPower 20mW
attr unit mW
par Scenario.node[1].nic.mac1609_4 queueSize 0
par Scenario.node[1].nic.mac1609_4 dot11RTSThreshold 12000bit
attr unit bit
par Scenario.node[1].nic.mac1609_4 dot11ShortRetryLimit 7
par Scenario.node[1].nic.mac1609_4 dot11LongRetryLimit 4
par Scenario.node[1].nic.mac1609_4 ackLength 112bit
attr unit bit
par Scenario.node[1].nic.mac1609_4 useAcks false
par Scenario.node[1].nic.mac1609_4 frameErrorRate 0
par Scenario.node[1].nic.mac1609_4 ackErrorRate 0
scalar Scenario.node[1].nic.mac1609_4 ReceivedUnicastPackets 0
scalar Scenario.node[1].nic.mac1609_4 ReceivedBroadcasts 13645
scalar Scenario.node[1].nic.mac1609_4 SentPackets 721
scalar Scenario.node[1].nic.mac1609_4 SentAcknowledgements 0
scalar Scenario.node[1].nic.mac1609_4 RetriesExceeded 0
scalar Scenario.node[1].nic.mac1609_4 SNIRLostPackets 316
scalar Scenario.node[1].nic.mac1609_4 RXTXLostPackets 0
scalar Scenario.node[1].nic.mac1609_4 TotalLostPackets 316
scalar Scenario.node[1].nic.mac1609_4 DroppedPacketsInMac 0
scalar Scenario.node[1].nic.mac1609_4 TooLittleTime 0
scalar Scenario.node[1].nic.mac1609_4 TimesIntoBackoff 721
scalar Scenario.node[1].nic.mac1609_4 SlotsBackoff 1106
scalar Scenario.node[1].nic.mac1609_4 NumInternalContention 0
scalar Scenario.node[1].nic.mac1609_4 totalBusyTime 1.524152591396
scalar Scenario.node[1].nic.mac1609_4 retriesExceeded:count 0
attr recordingmode count
attr source org_car2x_veins_modules_mac_sigRetriesExceeded
scalar Scenario.node[1].nic.mac1609_4 sentAcks:count 0
attr recordingmode count
attr source org_car2x_veins_modules_mac_sigSentAck
scalar Scenario.node[1].nic.mac1609_4 sentPackets:count 721
attr recordingmode count
attr source org_car2x_veins_modules_mac_sigSentPacket
scalar Scenario.node[1].nic.mac1609_4 collisions:count 0
attr recordingmode count
attr source org_car2x_veins_modules_mac_sigCollision
scalar Scenario.node[1].nic.mac1609_4 channelBusy:timeavg 0.021139425678176
attr recordingmode timeavg
attr source org_car2x_veins_modules_mac_sigChannelBusy
par Scenario.node[1].nic typename "\"org.car2x.veins.modules.nic.Nic80211p\""
par Scenario.node[1].nic connectionManagerName "\"connectionManager\""
par Scenario.node[1].veinsmobility typename "\"org.car2x.veins.modules.mobility.traci.TraCIMobility\""
par Scenario.node[1].veinsmobility notAffectedByHostState true
par Scenario.node[1].veinsmobility x 0
par Scenario.node[1].veinsmobility y 0
par Scenario.node[1].veinsmobility z 1.895
par Scenario.node[1].veinsmobility xOrientation 1
par Scenario.node[1].veinsmobility yOrientation 0
par Scenario.node[1].veinsmobility zOrientation 0
par Scenario.node[1].veinsmobility hostPositionOffset 0m
attr unit m
par Scenario.node[1].veinsmobility setHostSpeed false
par Scenario.node[1].veinsmobility accidentCount 0
par Scenario.node[1].veinsmobility accidentStart 31.7014s
attr unit s
par Scenario.node[1].veinsmobility accidentDuration "uniform(30s, 60s)"
attr unit s
par Scenario.node[1].veinsmobility accidentInterval "uniform(30s, 60s)"
attr unit s
scalar Scenario.node[1].veinsmobility startTime 1.1
scalar Scenario.node[1].veinsmobility totalTime 72
scalar Scenario.node[1].veinsmobility stopTime 73.2
scalar Scenario.node[1].veinsmobility minSpeed 0.25433206626587
scalar Scenario.node[1].veinsmobility maxSpeed 14.562191611984
scalar Scenario.node[1].veinsmobility totalDistance 993.89312240409
scalar Scenario.node[1].veinsmobility totalCO2Emission 193.72529693255
par Scenario.node[1] typename "\"org.car2x.veins.nodes.Car\""
par Scenario.node[1] applType "\"TraCIDemo11p\""
par Scenario.node[1] nicType "\"Nic80211p\""
par Scenario.node[1] veinsmobilityType "\"org.car2x.veins.modules.mobility.traci.TraCIMobility\""
par Scenario.node[2].appl typename "\"org.car2x.veins.modules.application.traci.TraCIDemo11p\""
par Scenario.node[2].appl headerLength 80bit
attr unit bit
par Scenario.node[2].appl sendBeacons true
par Scenario.node[2].appl beaconLengthBits 256bit
attr unit bit
par Scenario.node[2].appl beaconUserPriority 7
par Scenario.node[2].appl beaconInterval 0.1s
attr unit s
par Scenario.node[2].appl dataLengthBits 1024bit
attr unit bit
par Scenario.node[2].appl dataOnSch false
par Scenario.node[2].appl dataUserPriority 7
par Scenario.node[2].appl avoidBeaconSynchronization true
par Scenario.node[2].appl sendWSA false
par Scenario.node[2].appl wsaLengthBits 250bit
attr unit bit
par Scenario.node[2].appl wsaInterval 1s
attr unit s
scalar Scenario.node[2].appl generatedWSMs 0
scalar Scenario.node[2].appl receivedWSMs 0
scalar Scenario.node[2].appl generatedBSMs 733
scalar Scenario.node[2].appl receivedBSMs 15530
scalar Scenario.node[2].appl generatedWSAs 0
scalar Scenario.node[2].appl receivedWSAs 0
par Scenario.node[2].nic.phy80211p typename "\"org.car2x.veins.modules.phy.PhyLayer80211p\""
par Scenario.node[2].nic.phy80211p recordStats false
par Scenario.node[2].nic.phy80211p usePropagationDelay true
par Scenario.node[2].nic.phy80211p noiseFloor -98dBm
attr unit dBm
par Scenario.node[2].nic.phy80211p useNoiseFloor true
par Scenario.node[2].nic.phy80211p antenna "<root>...</root> at content:1"
par Scenario.node[2].nic.phy80211p antennaOffsetX 0m
attr unit m
par Scenario.node[2].nic.phy80211p antennaOffsetY 0m
attr unit m
par Scenario.node[2].nic.phy80211p antennaOffsetZ 1.895m
attr unit m
par Scenario.node[2].nic.phy80211p antennaOffsetYaw 0rad
attr unit rad
par Scenario.node[2].nic.phy80211p analogueModels "<root>...</root> at /home/vagrant/spe-homework-project/Project/simulations//config_2.xml:2"
par Scenario.node[2].nic.phy80211p decider "<root>...</root> at /home/vagrant/spe-homework-project/Project/simulations//config_2.xml:2"
par Scenario.node[2].nic.phy80211p minPowerLevel -110dBm
attr unit dBm
par Scenario.node[2].nic.phy80211p timeRXToTX 0s
attr unit s
par Scenario.node[2].nic.phy80211p timeRXToSleep 0s
attr unit s
par Scenario.node[2].nic.phy80211p timeTXToRX 0s
attr unit s
par Scenario.node[2].nic.phy80211p timeTXToSleep 0s
attr unit s
par Scenario.node[2].nic.phy80211p timeSleepToRX 0s
attr unit s
par Scenario.node[2].nic.phy80211p timeSleepToTX 0s
attr unit s
par Scenario.node[2].nic.phy80211p initialRadioState 0
par Scenario.node[2].nic.phy80211p radioMinAtt 1
par Scenario.node[2].nic.phy80211p radioMaxAtt 0
par Scenario.node[2].nic.phy80211p nbRadioChannels 1
par Scenario.node[2].nic.phy80211p initialRadioChannel 0
par Scenario.node[2].nic.phy80211p ccaThreshold -65dBm
attr unit dBm
par Scenario.node[2].nic.phy80211p collectCollisionStatistics false
par Scenario.node[2].nic.phy80211p allowTxDuringRx false
scalar Scenario.node[2].nic.phy80211p busyTime 0.022435907230567
par Scenario.node[2].nic.mac1609_4 typename "\"org.car2x.veins.modules.mac.ieee80211p.Mac1609_4\""
par Scenario.node[2].nic.mac1609_4 notAffectedByHostState false
par Scenario.node[2].nic.mac1609_4 headerLength 0bit
attr unit bit
par Scenario.node[2].nic.mac1609_4 address "\"auto\""
par Scenario.node[2].nic.mac1609_4 useServiceChannel false
par Scenario.node[2].nic.mac1609_4 serviceChannel 1
par Scenario.node[2].nic.mac1609_4 bitrate 6000000bps
attr unit bps
par Scenario.node[2].nic.mac1609_4 syncOffset 0.0003s
attr unit s
par Scenario.node[2].nic.mac1609_4 txPower 20mW
attr unit mW
par Scenario.node[2].nic.mac1609_4 queueSize 0
par Scenario.node[2].nic.mac1609_4 dot11RTSThreshold 12000bit
attr unit bit
par Scenario.node[2].nic.mac1609_4 dot11ShortRetryLimit 7
par Scenario.node[2].nic.mac1609_4 dot11LongRetryLimit 4
par Scenario.node[2].nic.mac1609_4 ackLength 112bit
attr unit bit
par Scenario.node[2].nic.mac1609_4 useAcks false
par Scenario.node[2].nic.mac1609_4 frameErrorRate 0
par Scenario.node[2].nic.mac1609_4 ackErrorRate 0
scalar Scenario.node[2].nic.mac1609_4 ReceivedUnicastPackets 0
scalar Scenario.node[2].nic.mac1609_4 ReceivedBroadcasts 15530
scalar Scenario.node[2].nic.mac1609_4 SentPackets 733
scalar Scenario.node[2].nic.mac1609_4 SentAcknowledgements 0
scalar Scenario.node[2].nic.mac1609_4 RetriesExceeded 0
scalar Scenario.node[2].nic.mac1609_4 SNIRLostPackets 283
scalar Scenario.node[2].nic.mac1609_4 RXTXLostPackets 0
scalar Scenario.node[2].nic.mac1609_4 TotalLostPackets 283
scalar Scenario.node[2].nic.mac1609_4 DroppedPacketsInMac 0
scalar Scenario.node[2].nic.mac1609_4 TooLittleTime 0
scalar Scenario.node[2].nic.mac1609_4 TimesIntoBackoff 733
scalar Scenario.node[2].nic.mac1609_4 SlotsBackoff 1043
scalar Scenario.node[2].nic.mac1609_4 NumInternalContention 0
scalar Scenario.node[2].nic.mac1609_4 totalBusyTime 1.71695471823
scalar Scenario.node[2].nic.mac1609_4 retriesExceeded:count 0
attr recordingmode count
attr source org_car2x_veins_modules_mac_sigRetriesExceeded
scalar Scenario.node[2].nic.mac1609_4 sentAcks:count 0
attr recordingmode count
attr source org_car2x_veins_modules_mac_sigSentAck
scalar Scenario.node[2].nic.mac1609_4 sentPackets:count 733
attr recordingmode count
attr source org_car2x_veins_modules_mac_sigSentPacket
scalar Scenario.node[2].nic.mac1609_4 collisions:count 0
attr recordingmode count
attr source org_car2x_veins_modules_mac_sigCollision
scalar Scenario.node[2].nic.mac1609_4 channelBusy:timeavg 0.023423666005875
attr recordingmode timeavg
attr source org_car2x_veins_modules_mac_sigChannelBusy
par Scenario.node[2].nic typename "\"org.car2x.veins.modules.nic.Nic80211p\""
par Scenario.node[2].nic connectionManagerName "\"connectionManager\""
par Scenario.node[2].veinsmobility typename "\"org.car2x.veins.modules.mobility.traci.TraCIMobility\""
par Scenario.node[2].veinsmobility notAffectedByHostState true
par Scenario.node[2].veinsmobility x 0
par Scenario.node[2].veinsmobility y 0
par Scenario.node[2].veinsmobility z 1.895
par Scenario.node[2].veinsmobility xOrientation 1
par Scenario.node[2].veinsmobility yOrientation 0
par Scenario.node[2].veinsmobility zOrientation 0
par Scenario.node[2].veinsmobility hostPositionOffset 0m
attr unit m
par Scenario.node[2].veinsmobility setHostSpeed false
par Scenario.node[2].veinsmobility accidentCount 0
par Scenario.node[2].veinsmobility accidentStart 34.3006s
attr unit s
par Scenario.node[2].veinsmobility accidentDuration "uniform(30s, 60s)"
attr unit s
par Scenario.node[2].veinsmobility accidentInterval "uniform(30s, 60s)"
attr unit s
scalar Scenario.node[2].veinsmobility startTime 2.7
scalar Scenario.node[2].veinsmobility totalTime 73.2
scalar Scenario.node[2].veinsmobility stopTime 76
scalar Scenario.node[2].veinsmobility minSpeed 0.25539923405228
scalar Scenario.node[2].veinsmobility maxSpeed 14.306503849603
scalar Scenario.node[2].veinsmobility totalDistance 993.42114126356
scalar Scenario.node[2].veinsmobility totalCO2Emission 193.26240377823
par Scenario.node[2] typename "\"org.car2x.veins.nodes.Car\""
par Scenario.node[2] applType "\"TraCIDemo11p\""
par Scenario.node[2] nicType "\"Nic80211p\""
par Scenario.node[2] veinsmobilityType "\"org.car2x.veins.modules.mobility.traci.TraCIMobility\""
par Scenario.node[3].appl typename "\"org.car2x.veins.modules.application.traci.TraCIDemo11p\""
par Scenario.node[3].appl headerLength 80bit
attr unit bit
par Scenario.node[3].appl sendBeacons true
par Scenario.node[3].appl beaconLengthBits 256bit
attr unit bit
par Scenario.node[3].appl beaconUserPriority 7
par Scenario.node[3].appl beaconInterval 0.1s
attr unit s
par Scenario.node[3].appl dataLengthBits 1024bit
attr unit bit
par Scenario.node[3].appl dataOnSch false
par Scenario.node[3].appl dataUserPriority 7
par Scenario.node[3].appl avoidBeaconSynchronization true
par Scenario.node[3].appl sendWSA false
par Scenario.node[3].appl wsaLengthBits 250bit
attr unit bit
par Scenario.node[3].appl wsaInterval 1s
attr unit s
scalar Scenario.node[3].appl generatedWSMs 0
scalar Scenario.node[3].appl receivedWSMs 0
scalar Scenario.node[3].appl generatedBSMs 845
scalar Scenario.node[3].appl receivedBSMs 20672
scalar Scenario.node[3].appl generatedWSAs 0
scalar Scenario.node[3].appl receivedWSAs 0
par Scenario.node[3].nic.phy80211p typename "\"org.car2x.veins.modules.phy.PhyLayer80211p\""
par Scenario.node[3].nic.phy80211p recordStats false
par Scenario.node[3].nic.phy80211p usePropagationDelay true
par Scenario.node[3].nic.phy80211p noiseFloor -98dBm
attr unit dBm
par Scenario.node[3].nic.phy80211p useNoiseFloor true
par Scenario.node[3].nic.phy80211p antenna "<root>...</root> at content:1"
par Scenario.node[3].nic.phy80211p antennaOffsetX 0m
attr unit m
par Scenario.node[3].nic.phy80211p antennaOffsetY 0m
attr unit m
par Scenario.node[3].nic.phy80211p antennaOffsetZ 1.895m
attr unit m
par Scenario.node[3].nic.phy80211p antennaOffsetYaw 0rad
attr unit rad
par Scenario.node[3].nic.phy80211p analogueModels "<root>...</root> at /home/vagrant/spe-homework-project/Project/simulations//config_2.xml:2"
par Scenario.node[3].nic.phy80211p decider "<root>...</root> at /home/vagrant/spe-homework-project/Project/simulations//config_2.xml:2"
par Scenario.node[3].nic.phy80211p minPowerLevel -110dBm
attr unit dBm
par Scenario.node[3].nic.phy80211p timeRXToTX 0s
attr unit s
par Scenario.node[3].nic.phy80211p timeRXToSleep 0s
attr unit s
par Scenario.node[3].nic.phy80211p timeTXToRX 0s
attr unit s
par Scenario.node[3].nic.phy80211p timeTXToSleep 0s
attr unit s
par Scenario.node[3].nic.phy80211p timeSleepToRX 0s
attr unit s
par Scenario.node[3].nic.phy80211p timeSleepToTX 0s
attr unit s
par Scenario.node[3].nic.phy80211p initialRadioState 0
par Scenario.node[3].nic.phy80211p radioMinAtt 1
par Scenario.node[3].nic.phy80211p radioMaxAtt 0
par Scenario.node[3].nic.phy80211p nbRadioChannels 1
par Scenario.node[3].nic.phy80211p initialRadioChannel 0
par Scenario.node[3].nic.phy80211p ccaThreshold -65dBm
attr unit dBm
par Scenario.node[3].nic.phy80211p collectCollisionStatistics false
par Scenario.node[3].nic.phy80211p allowTxDuringRx false
scalar Scenario.node[3].nic.phy80211p busyTime 0.025997538461547
par Scenario.node[3].nic.mac1609_4 typename "\"org.car2x.veins.modules.mac.ieee80211p.Mac1609_4\""
par Scenario.node[3].nic.mac1609_4 notAffectedByHostState false
par Scenario.node[3].nic.mac1609_4 headerLength 0bit
attr unit bit
par Scenario.node[3].nic.mac1609_4 address "\"auto\""
par Scenario.node[3].nic.mac1609_4 useServiceChannel false
par Scenario.node[3].nic.mac1609_4 serviceChannel 1
par Scenario.node[3].nic.mac1609_4 bitrate 6000000bps
attr unit bps
par Scenario.node[3].nic.mac1609_4 syncOffset 0.0003s
attr unit s
par Scenario.node[3].nic.mac1609_4 txPower 20mW
attr unit mW
par Scenario.node[3].nic.mac1609_4 queueSize 0
par Scenario.node[3].nic.mac1609_4 dot11RTSThreshold 12000bit
attr unit bit
par Scenario.node[3].nic.mac1609_4 dot11ShortRetryLimit 7
par Scenario.node[3].nic.mac1609_4 dot11LongRetryLimit 4
par Scenario.node[3].nic.mac1609_4 ackLength 112bit
attr unit bit
par Scenario.node[3].nic.mac1609_4 useAcks false
par Scenario.node[3].nic.mac1609_4 frameErrorRate 0
par Scenario.node[3].nic.mac1609_4 ackErrorRate 0
scalar Scenario.node[3].nic.mac1609_4 ReceivedUnicastPackets 0
scalar Scenario.node[3].nic.mac1609_4 ReceivedBroadcasts 20672
scalar Scenario.node[3].nic.mac1609_4 SentPackets 845
scalar Scenario.node[3].nic.mac1609_4 SentAcknowledgements 0
scalar Scenario.node[3].nic.mac1609_4 RetriesExceeded 0
scalar Scenario.node[3].nic.mac1609_4 SNIRLostPackets 451
scalar Scenario.node[3].nic.mac1609_4 RXTXLostPackets 0
scalar Scenario.node[3].nic.mac1609_4 TotalLostPackets 451
scalar Scenario.node[3].nic.mac1609_4 DroppedPacketsInMac 0
scalar Scenario.node[3].nic.mac1609_4 TooLittleTime 0
scalar Scenario.node[3].nic.mac1609_4 TimesIntoBackoff 845
scalar Scenario.node[3].nic.mac1609_4 SlotsBackoff 1270
scalar Scenario.node[3].nic.mac1609_4 NumInternalContention 0
scalar Scenario.node[3].nic.mac1609_4 totalBusyTime 2.278144586424
scalar Scenario.node[3].nic.mac1609_4 retriesExceeded:count 0
attr recordingmode count
attr source org_car2x_veins_modules_mac_sigRetriesExceeded
scalar Scenario.node[3].nic.mac1609_4 sentAcks:count 0
attr recordingmode count
attr source org_car2x_veins_modules_mac_sigSentAck
scalar Scenario.node[3].nic.mac1609_4 sentPackets:count 845
attr recordingmode count
attr source org_car2x_veins_modules_mac_sigSentPacket
scalar Scenario.node[3].nic.mac1609_4 collisions:count 0
attr recordingmode count
attr source org_car2x_veins_modules_mac_sigCollision
scalar Scenario.node[3].nic.mac1609_4 channelBusy:timeavg 0.026960290963605
attr recordingmode timeavg
attr source org_car2x_veins_modules_mac_sigChannelBusy
par Scenario.node[3].nic typename "\"org.car2x.veins.modules.nic.Nic80211p\""
par Scenario.node[3].nic connectionManagerName "\"connectionManager\""
par Scenario.node[3].veinsmobility typename "\"org.car2x.veins.modules.mobility.traci.TraCIMobility\""
par Scenario.node[3].veinsmobility notAffectedByHostState true
par Scenario.node[3].veinsmobility x 0
par Scenario.node[3].veinsmobility y 0
par Scenario.node[3].veinsmobility z 1.895
par Scenario.node[3].veinsmobility xOrientation 1
par Scenario.node[3].veinsmobility yOrientation 0
par Scenario.node[3].veinsmobility zOrientation 0
par Scenario.node[3].veinsmobility hostPositionOffset 0m
attr unit m
par Scenario.node[3].veinsmobility setHostSpeed false
par Scenario.node[3].veinsmobility accidentCount 0
par Scenario.node[3].veinsmobility accidentStart 55.2703s
attr unit s
par Scenario.node[3].veinsmobility accidentDuration "uniform(30s, 60s)"
attr unit s
par Scenario.node[3].veinsmobility accidentInterval "uniform(30s, 60s)"
attr unit s
scalar Scenario.node[3].veinsmobility startTime 4.1
scalar Scenario.node[3].veinsmobility totalTime 84.4
scalar Scenario.node[3].veinsmobility stopTime 88.6
scalar Scenario.node[3].veinsmobility minSpeed 0.25663952494087
scalar Scenario.node[3].veinsmobility maxSpeed 12.266208522205
scalar Scenario.node[3].veinsmobility totalDistance 994.49509061106
scalar Scenario.node[3].veinsmobility totalCO2Emission 194.53196545772
par Scenario.node[3] typename "\"org.car2x.veins.nodes.Car\""
par Scenario.node[3] applType "\"TraCIDemo11p\""
par Scenario.node[3] nicType "\"Nic80211p\""
par Scenario.node[3] veinsmobilityType "\"org.car2x.veins.modules.mobility.traci.TraCIMobility\""
par Scenario.node[7].appl typename "\"org.car2x.veins.modules.application.traci.TraCIDemo11p\""
par Scenario.node[7].appl headerLength 80bit
attr unit bit
par Scenario.node[7].appl sendBeacons true
par Scenario.node[7].appl beaconLengthBits 256bit
attr unit bit
par Scenario.node[7].appl beaconUserPriority 7
par Scenario.node[7].appl beaconInterval 0.1s
attr unit s
par Scenario.node[7].appl dataLengthBits 1024bit
attr unit bit
par Scenario.node[7].appl dataOnSch false
par Scenario.node[7].appl dataUserPriority 7
par Scenario.node[7].appl avoidBeaconSynchronization true
par Scenario.node[7].appl sendWSA false
par Scenario.node[7].appl wsaLengthBits 250bit
attr unit bit
par Scenario.node[7].appl wsaInterval 1s
attr unit s
scalar Scenario.node[7].appl generatedWSMs 0
scalar Scenario.node[7].appl receivedWSMs 0
scalar Scenario.node[7].appl generatedBSMs 840
scalar Scenario.node[7].appl receivedBSMs 22230
scalar Scenario.node[7].appl generatedWSAs 0
scalar Scenario.node[7].appl receivedWSAs 0
par Scenario.node[7].nic.phy80211p typename "\"org.car2x.veins.modules.phy.PhyLayer80211p\""
par Scenario.node[7].nic.phy80211p recordStats false
par Scenario.node[7].nic.phy80211p usePropagationDelay true
par Scenario.node[7].nic.phy80211p noiseFloor -98dBm
attr unit dBm
par Scenario.node[7].nic.phy80211p useNoiseFloor true
par Scenario.node[7].nic.phy80211p antenna "<root>...</root> at content:1"
par Scenario.node[7].nic.phy80211p antennaOffsetX 0m
attr unit m
par Scenario.node[7].nic.phy80211p antennaOffsetY 0m
attr unit m
par Scenario.node[7].nic.phy80211p antennaOffsetZ 1.895m
attr unit m
par Scenario.node[7].nic.phy80211p antennaOffsetYaw 0rad
attr unit rad
par Scenario.node[7].nic.phy80211p analogueModels "<root>...</root> at /home/vagrant/spe-homework-project/Project/simulations//config_2.xml:2"
par Scenario.node[7].nic.phy80211p decider "<root>...</root> at /home/vagrant/spe-homework-project/Project/simulations//config_2.xml:2"
par Scenario.node[7].nic.phy80211p minPowerLevel -110dBm
attr unit dBm
par Scenario.node[7].nic.phy80211p timeRXToTX 0s
attr unit s
par Scenario.node[7].nic.phy80211p timeRXToSleep 0s
attr unit s
par Scenario.node[7].nic.phy80211p timeTXToRX 0s
attr unit s
par Scenario.node[7].nic.phy80211p timeTXToSleep 0s
attr unit s
par Scenario.node[7].nic.phy80211p timeSleepToRX 0s
attr unit s
par Scenario.node[7].nic.phy80211p timeSleepToTX 0s
attr unit s
par Scenario.node[7].nic.phy80211p initialRadioState 0
par Scenario.node[7].nic.phy80211p radioMinAtt 1
par Scenario.node[7].nic.phy80211p radioMaxAtt 0
par Scenario.node[7].nic.phy80211p nbRadioChannels 1
par Scenario.node[7].nic.phy80211p initialRadioChannel 0
par Scenario.node[7].nic.phy80211p ccaThreshold -65dBm
attr unit dBm
par Scenario.node[7].nic.phy80211p collectCollisionStatistics false
par Scenario.node[7].nic.phy80211p allowTxDuringRx false
scalar Scenario.node[7].nic.phy80211p busyTime 0.028032952380959
par Scenario.node[7].nic.mac1609_4 typename "\"org.car2x.veins.modules.mac.ieee80211p.Mac1609_4\""
par Scenario.node[7].nic.mac1609_4 notAffectedByHostState false
par Scenario.node[7].nic.mac1609_4 headerLength 0bit
attr unit bit
par Scenario.node[7].nic.mac1609_4 address "\"auto\""
par Scenario.node[7].nic.mac1609_4 useServiceChannel false
par Scenario.node[7].nic.mac1609_4 serviceChannel 1
par Scenario.node[7].nic.mac1609_4 bitrate 6000000bps
attr unit bps
par Scenario.node[7].nic.mac1609_4 syncOffset 0.0003s
attr unit s
par Scenario.node[7].nic.mac1609_4 txPower 20mW
attr unit mW
par Scenario.node[7].nic.mac1609_4 queueSize 0
par Scenario.node[7].nic.mac1609_4 dot11RTSThreshold 12000bit
attr unit bit
par Scenario.node[7].nic.mac1609_4 dot11ShortRetryLimit 7
par Scenario.node[7].nic.mac1609_4 dot11LongRetryLimit 4
par Scenario.node[7].nic.mac1609_4 ackLength 112bit
attr unit bit
par Scenario.node[7].nic.mac1609_4 useAcks false
par Scenario.node[7].nic.mac1609_4 frameErrorRate 0
par Scenario.node[7].nic.mac1609_4 ackErrorRate 0
scalar Scenario.node[7].nic.mac1609_4 ReceivedUnicastPackets 0
scalar Scenario.node[7].nic.mac1609_4 ReceivedBroadcasts 22230
scalar Scenario.node[7].nic.mac1609_4 SentPackets 840
scalar Scenario.node[7].nic.mac1609_4 SentAcknowledgements 0
scalar Scenario.node[7].nic.mac1609_4 RetriesExceeded 0
scalar Scenario.node[7].nic.mac1609_4 SNIRLostPackets 412
scalar Scenario.node[7].nic.mac1609_4 RXTXLostPackets 0
scalar Scenario.node[7].nic.mac1609_4 TotalLostPackets 412
scalar Scenario.node[7].nic.mac1609_4 DroppedPacketsInMac 0
scalar Scenario.node[7].nic.mac1609_4 TooLittleTime 0
scalar Scenario.node[7].nic.mac1609_4 TimesIntoBackoff 840
scalar Scenario.node[7].nic.mac1609_4 SlotsBackoff 1307
scalar Scenario.node[7].nic.mac1609_4 NumInternalContention 0
scalar Scenario.node[7].nic.mac1609_4 totalBusyTime 2.434955664165
scalar Scenario.node[7].nic.mac1609_4 retriesExceeded:count 0
attr recordingmode count
attr source org_car2x_veins_modules_mac_sigRetriesExceeded
scalar Scenario.node[7].nic.mac1609_4 sentAcks:count 0
attr recordingmode count
attr source org_car2x_veins_modules_mac_sigSentAck
scalar Scenario.node[7].nic.mac1609_4 sentPackets:count 840
attr recordingmode count
attr source org_car2x_veins_modules_mac_sigSentPacket
scalar Scenario.node[7].nic.mac1609_4 collisions:count 0
attr recordingmode count
attr source org_car2x_veins_modules_mac_sigCollision
scalar Scenario.node[7].nic.mac1609_4 channelBusy:timeavg 0.028987567430541
attr recordingmode timeavg
attr source org_car2x_veins_modules_mac_sigChannelBusy
par Scenario.node[7].nic typename "\"org.car2x.veins.modules.nic.Nic80211p\""
par Scenario.node[7].nic connectionManagerName "\"connectionManager\""
par Scenario.node[7].veinsmobility typename "\"org.car2x.veins.modules.mobility.traci.TraCIMobility\""
par Scenario.node[7].veinsmobility notAffectedByHostState true
par Scenario.node[7].veinsmobility x 0
par Scenario.node[7].veinsmobility y 0
par Scenario.node[7].veinsmobility z 1.895
par Scenario.node[7].veinsmobility xOrientation 1
par Scenario.node[7].veinsmobility yOrientation 0
par Scenario.node[7].veinsmobility zOrientation 0
par Scenario.node[7].veinsmobility hostPositionOffset 0m
attr unit m
par Scenario.node[7].veinsmobility setHostSpeed false
par Scenario.node[7].veinsmobility accidentCount 0
par Scenario.node[7].veinsmobility accidentStart 33.0076s
attr unit s
par Scenario.node[7].veinsmobility accidentDuration "uniform(30s, 60s)"
attr unit s
par Scenario.node[7].veinsmobility accidentInterval "uniform(30s, 60s)"
attr unit s
scalar Scenario.node[7].veinsmobility startTime 9.4
scalar Scenario.node[7].veinsmobility totalTime 83.9
scalar Scenario.node[7].veinsmobility stopTime 93.4
scalar Scenario.node[7].veinsmobility minSpeed 0.25496219544415
scalar Scenario.node[7].veinsmobility maxSpeed 13.131545098789
scalar Scenario.node[7].veinsmobility totalDistance 994.57229848584
scalar Scenario.node[7].veinsmobility totalCO2Emission 209.01315395906
par Scenario.node[7] typename "\"org.car2x.veins.nodes.Car\""
par Scenario.node[7] applType "\"TraCIDemo11p\""
par Scenario.node[7] nicType "\"Nic80211p\""
par Scenario.node[7] veinsmobilityType "\"org.car2x.veins.modules.mobility.traci.TraCIMobility\""
par Scenario.node[11].appl typename "\"org.car2x.veins.modules.application.traci.TraCIDemo11p\""
par Scenario.node[11].appl headerLength 80bit
attr unit bit
par Scenario.node[11].appl sendBeacons true
par Scenario.node[11].appl beaconLengthBits 256bit
attr unit bit
par Scenario.node[11].appl beaconUserPriority 7
par Scenario.node[11].appl beaconInterval 0.1s
attr unit s
par Scenario.node[11].appl dataLengthBits 1024bit
attr unit bit
par Scenario.node[11].appl dataOnSch false
par Scenario.node[11].appl dataUserPriority 7
par Scenario.node[11].appl avoidBeaconSynchronization true
par Scenario.node[11].appl sendWSA false
par Scenario.node[11].appl wsaLengthBits 250bit
attr unit bit
par Scenario.node[11].appl wsaInterval 1s
attr unit s
scalar Scenario.node[11].appl generatedWSMs 0
scalar Scenario.node[11].appl receivedWSMs 0
scalar Scenario.node[11].appl generatedBSMs 833
scalar Scenario.node[11].appl receivedBSMs 23956
scalar Scenario.node[11].appl generatedWSAs 0
scalar Scenario.node[11].appl receivedWSAs 0
par Scenario.node[11].nic.phy80211p typename "\"org.car2x.veins.modules.phy.PhyLayer80211p\""
par Scenario.node[11].nic.phy80211p recordStats false
par Scenario.node[11].nic.phy80211p usePropagationDelay true
par Scenario.node[11].nic.phy80211p noiseFloor -98dBm
attr unit dBm
par Scenario.node[11].nic.phy80211p useNoiseFloor true
par Scenario.node[11].nic.phy80211p antenna "<root>...</root> at content:1"
par Scenario.node[11].nic.phy80211p antennaOffsetX 0m
attr unit m
par Scenario.node[11].nic.phy80211p antennaOffsetY 0m
attr unit m
par Scenario.node[11].nic.phy80211p antennaOffsetZ 1.895m
attr unit m
par Scenario.node[11].nic.phy80211p antennaOffsetYaw 0rad
attr unit rad
par Scenario.node[11].nic.phy80211p analogueModels "<root>...</root> at /home/vagrant/spe-homework-project/Project/simulations//config_2.xml:2"
par Scenario.node[11].nic.phy80211p decider "<root>...</root> at /home/vagrant/spe-homework-project/Project/simulations//config_2.xml:2"
par Scenario.node[11].nic.phy80211p minPowerLevel -110dBm
attr unit dBm
par Scenario.node[11].nic.phy80211p timeRXToTX 0s
attr unit s
par Scenario.node[11].nic.phy80211p timeRXToSleep 0s
attr unit s
par Scenario.node[11].nic.phy80211p timeTXToRX 0s
attr unit s
par Scenario.node[11].nic.phy80211p timeTXToSleep 0s
attr unit s
par Scenario.node[11].nic.phy80211p timeSleepToRX 0s
attr unit s
par Scenario.node[11].nic.phy80211p timeSleepToTX 0s
attr unit s
par Scenario.node[11].nic.phy80211p initialRadioState 0
par Scenario.node[11].nic.phy80211p radioMinAtt 1
par Scenario.node[11].nic.phy80211p radioMaxAtt 0
par Scenario.node[11].nic.phy80211p nbRadioChannels 1
par Scenario.node[11].nic.phy80211p initialRadioChannel 0
par Scenario.node[11].nic.phy80211p ccaThreshold -65dBm
attr unit dBm
par Scenario.node[11].nic.phy80211p collectCollisionStatistics false
par Scenario.node[11].nic.phy80211p allowTxDuringRx false
scalar Scenario.node[11].nic.phy80211p busyTime 0.03033728691477
par Scenario.node[11].nic.mac1609_4 typename "\"org.car2x.veins.modules.mac.ieee80211p.Mac1609_4\""
par Scenario.node[11].nic.mac1609_4 notAffectedByHostState false
par Scenario.node[11].nic.mac1609_4 headerLength 0bit
attr unit bit
par Scenario.node[11].nic.mac1609_4 address "\"auto\""
par Scenario.node[11].nic.mac1609_4 useServiceChannel false
par Scenario.node[11].nic.mac1609_4 serviceChannel 1
par Scenario.node[11].nic.mac1609_4 bitrate 6000000bps
attr unit bps
par Scenario.node[11].nic.mac1609_4 syncOffset 0.0003s
attr unit s
par Scenario.node[11].nic.mac1609_4 txPower 20mW
attr unit mW
par Scenario.node[11].nic.mac1609_4 queueSize 0
par Scenario.node[11].nic.mac1609_4 dot11RTSThreshold 12000bit
attr unit bit
par Scenario.node[11].nic.mac1609_4 dot11ShortRetryLimit 7
par Scenario.node[11].nic.mac1609_4 dot11LongRetryLimit 4
par Scenario.node[11].nic.mac1609_4 ackLength 112bit
attr unit bit
par Scenario.node[11].nic.mac1609_4 useAcks false
par Scenario.node[11].nic.mac1609_4 frameErrorRate 0
par Scenario.node[11].nic.mac1609_4 ackErrorRate 0
scalar Scenario.node[11].nic.mac1609_4 ReceivedUnicastPackets 0
scalar Scenario.node[11].nic.mac1609_4 ReceivedBroadcasts 23956
scalar Scenario.node[11].nic.mac1609_4 SentPackets 833
scalar Scenario.node[11].nic.mac1609_4 SentAcknowledgements 0
scalar Scenario.node[11].nic.mac1609_4 RetriesExceeded 0
scalar Scenario.node[11].nic.mac1609_4 SNIRLostPackets 343
scalar Scenario.node[11].nic.mac1609_4 RXTXLostPackets 0
scalar Scenario.node[11].nic.mac1609_4 TotalLostPackets 343
scalar Scenario.node[11].nic.mac1609_4 DroppedPacketsInMac 0
scalar Scenario.node[11].nic.mac1609_4 TooLittleTime 0
scalar Scenario.node[11].nic.mac1609_4 TimesIntoBackoff 833
scalar Scenario.node[11].nic.mac1609_4 SlotsBackoff 1248
scalar Scenario.node[11].nic.mac1609_4 NumInternalContention 0
scalar Scenario.node[11].nic.mac1609_4 totalBusyTime 2.605785385518
scalar Scenario.node[11].nic.mac1609_4 retriesExceeded:count 0
attr recordingmode count
attr source org_car2x_veins_modules_mac_sigRetriesExceeded
scalar Scenario.node[11].nic.mac1609_4 sentAcks:count 0
attr recordingmode count
attr source org_car2x_veins_modules_mac_sigSentAck
scalar Scenario.node[11].nic.mac1609_4 sentPackets:count 833
attr recordingmode count
attr source org_car2x_veins_modules_mac_sigSentPacket
scalar Scenario.node[11].nic.mac1609_4 collisions:count 0
attr recordingmode count
attr source org_car2x_veins_modules_mac_sigCollision
scalar Scenario.node[11].nic.mac1609_4 channelBusy:timeavg 0.03128193740118
attr recordingmode timeavg
attr source org_car2x_veins_modules_mac_sigChannelBusy
par Scenario.node[11].nic typename "\"org.car2x.veins.modules.nic.Nic80211p\""
par Scenario.node[11].nic connectionManagerName "\"connectionManager\""
par Scenario.node[11].veinsmobility typename "\"org.car2x.veins.modules.mobility.traci.TraCIMobility\""
par Scenario.node[11].veinsmobility notAffectedByHostState true
par Scenario.node[11].veinsmobility x 0
par Scenario.node[11].veinsmobility y 0
par Scenario.node[11].veinsmobility z 1.895
par Scenario.node[11].veinsmobility xOrientation 1
par Scenario.node[11].veinsmobility yOrientation 0
par Scenario.node[11].veinsmobility zOrientation 0
par Scenario.node[11].veinsmobility hostPositionOffset 0m
attr unit m
par Scenario.node[11].veinsmobility setHostSpeed false
par Scenario.node[11].veinsmobility accidentCount 0
par Scenario.node[11].veinsmobility accidentStart 48.0992s
attr unit s
par Scenario.node[11].veinsmobility accidentDuration "uniform(30s, 60s)"
attr unit s
par Scenario.node[11].veinsmobility accidentInterval "uniform(30s, 60s)"
attr unit s
scalar Scenario.node[11].veinsmobility startTime 14.8
scalar Scenario.node[11].veinsmobility totalTime 83.2
scalar Scenario.node[11].veinsmobility stopTime 98.1
scalar Scenario.node[11].veinsmobility minSpeed 0.25299062605039
scalar Scenario.node[11].veinsmobility maxSpeed 13.127292641072
scalar Scenario.node[11].veinsmobility totalDistance 994.10352290559
scalar Scenario.node[11].veinsmobility totalCO2Emission 201.0542533873
par Scenario.node[11] typename "\"org.car2x.veins.nodes.Car\""
par Scenario.node[11] applType "\"TraCIDemo11p\""
par Scenario.node[11] nicType "\"Nic80211p\""
par Scenario.node[11] veinsmobilityType "\"org.car2x.veins.modules.mobility.traci.TraCIMobility\""
par Scenario.node[13].appl typename "\"org.car2x.veins.modules.application.traci.TraCIDemo11p\""
par Scenario.node[13].appl headerLength 80bit
attr unit bit
par Scenario.node[13].appl sendBeacons true
par Scenario.node[13].appl beaconLengthBits 256bit
attr unit bit
par Scenario.node[13].appl beaconUserPriority 7
par Scenario.node[13].appl beaconInterval 0.1s
attr unit s
par Scenario.node[13].appl dataLengthBits 1024bit
attr unit bit
par Scenario.node[13].appl dataOnSch false
par Scenario.node[13].appl dataUserPriority 7
par Scenario.node[13].appl avoidBeaconSynchronization true
par Scenario.node[13].appl sendWSA false
par Scenario.node[13].appl wsaLengthBits 250bit
attr unit bit
par Scenario.node[13].appl wsaInterval 1s
attr unit s
scalar Scenario.node[13].appl generatedWSMs 0
scalar Scenario.node[13].appl receivedWSMs 0
scalar Scenario.node[13].appl generatedBSMs 824
scalar Scenario.node[13].appl receivedBSMs 24547
scalar Scenario.node[13].appl generatedWSAs 0
scalar Scenario.node[13].appl receivedWSAs 0
par Scenario.node[13].nic.phy80211p typename "\"org.car2x.veins.modules.phy.PhyLayer80211p\""
par Scenario.node[13].nic.phy80211p recordStats false
par Scenario.node[13].nic.phy80211p usePropagationDelay true
par Scenario.node[13].nic.phy80211p noiseFloor -98dBm
attr unit dBm
par Scenario.node[13].nic.phy80211p useNoiseFloor true
par Scenario.node[13].nic.phy80211p antenna "<root>...</root> at content:1"
par Scenario.node[13].nic.phy80211p antennaOffsetX 0m
attr unit m
par Scenario.node[13].nic.phy80211p antennaOffsetY 0m
attr unit m
par Scenario.node[13].nic.phy80211p antennaOffsetZ 1.895m
attr unit m
par Scenario.node[13].nic.phy80211p antennaOffsetYaw 0rad
attr unit rad
par Scenario.node[13].nic.phy80211p analogueModels "<root>...</root> at /home/vagrant/spe-homework-project/Project/simulations//config_2.xml:2"
par Scenario.node[13].nic.phy80211p decider "<root>...</root> at /home/vagrant/spe-homework-project/Project/simulations//config_2.xml:2"
par Scenario.node[13].nic.phy80211p minPowerLevel -110dBm
attr unit dBm
par Scenario.node[13].nic.phy80211p timeRXToTX 0s
attr unit s
par Scenario.node[13].nic.phy80211p timeRXToSleep 0s
attr unit s
par Scenario.node[13].nic.phy80211p timeTXToRX 0s
attr unit s
par Scenario.node[13].nic.phy80211p timeTXToSleep 0s
attr unit s
par Scenario.node[13].nic.phy80211p timeSleepToRX 0s
attr unit s
par Scenario.node[13].nic.phy80211p timeSleepToTX 0s
attr unit s
par Scenario.node[13].nic.phy80211p initialRadioState 0
par Scenario.node[13].nic.phy80211p radioMinAtt 1
par Scenario.node[13].nic.phy80211p radioMaxAtt 0
par Scenario.node[13].nic.phy80211p nbRadioChannels 1
par Scenario.node[13].nic.phy80211p initialRadioChannel 0
par Scenario.node[13].nic.phy80211p ccaThreshold -65dBm
attr unit dBm
par Scenario.node[13].nic.phy80211p collectCollisionStatistics false
par Scenario.node[13].nic.phy80211p allowTxDuringRx false
scalar Scenario.node[13].nic.phy80211p busyTime 0.031391844660198
par Scenario.node[13].nic.mac1609_4 typename "\"org.car2x.veins.modules.mac.ieee80211p.Mac1609_4\""
par Scenario.node[13].nic.mac1609_4 notAffectedByHostState false
par Scenario.node[13].nic.mac1609_4 headerLength 0bit
attr unit bit
par Scenario.node[13].nic.mac1609_4 address "\"auto\""
par Scenario.node[13].nic.mac1609_4 useServiceChannel false
par Scenario.node[13].nic.mac1609_4 serviceChannel 1
par Scenario.node[13].nic.mac1609_4 bitrate 6000000bps
attr unit bps
par Scenario.node[13].nic.mac1609_4 syncOffset 0.0003s
attr unit s
par Scenario.node[13].nic.mac1609_4 txPower 20mW
attr unit mW
par Scenario.node[13].nic.mac1609_4 queueSize 0
par Scenario.node[13].nic.mac1609_4 dot11RTSThreshold 12000bit
attr unit bit
par Scenario.node[13].nic.mac1609_4 dot11ShortRetryLimit 7
par Scenario.node[13].nic.mac1609_4 dot11LongRetryLimit 4
par Scenario.node[13].nic.mac1609_4 ackLength 112bit
attr unit bit
par Scenario.node[13].nic.mac1609_4 useAcks false
par Scenario.node[13].nic.mac1609_4 frameErrorRate 0
par Scenario.node[13].nic.mac1609_4 ackErrorRate 0
scalar Scenario.node[13].nic.mac1609_4 ReceivedUnicastPackets 0
scalar Scenario.node[13].nic.mac1609_4 ReceivedBroadcasts 24547
scalar Scenario.node[13].nic.mac1609_4 SentPackets 824
scalar Scenario.node[13].nic.mac1609_4 SentAcknowledgements 0
scalar Scenario.node[13].nic.mac1609_4 RetriesExceeded 0
scalar Scenario.node[13].nic.mac1609_4 SNIRLostPackets 325
scalar Scenario.node[13].nic.mac1609_4 RXTXLostPackets 0
scalar Scenario.node[13].nic.mac1609_4 TotalLostPackets 325
scalar Scenario.node[13].nic.mac1609_4 DroppedPacketsInMac 0
scalar Scenario.node[13].nic.mac1609_4 TooLittleTime 0
scalar Scenario.node[13].nic.mac1609_4 TimesIntoBackoff 824
scalar Scenario.node[13].nic.mac1609_4 SlotsBackoff 1221
scalar Scenario.node[13].nic.mac1609_4 NumInternalContention 0
scalar Scenario.node[13].nic.mac1609_4 totalBusyTime 2.664149780785
scalar Scenario.node[13].nic.mac1609_4 retriesExceeded:count 0
attr recordingmode count
attr source org_car2x_veins_modules_mac_sigRetriesExceeded
scalar Scenario.node[13].nic.mac1609_4 sentAcks:count 0
attr recordingmode count
attr source org_car2x_veins_modules_mac_sigSentAck
scalar Scenario.node[13].nic.mac1609_4 sentPackets:count 824
attr recordingmode count
attr source org_car2x_veins_modules_mac_sigSentPacket
scalar Scenario.node[13].nic.mac1609_4 collisions:count 0
attr recordingmode count
attr source org_car2x_veins_modules_mac_sigCollision
scalar Scenario.node[13].nic.mac1609_4 channelBusy:timeavg 0.032331914815354
attr recordingmode timeavg
attr source org_car2x_veins_modules_mac_sigChannelBusy
par Scenario.node[13].nic typename "\"org.car2x.veins.modules.nic.Nic80211p\""
par Scenario.node[13].nic connectionManagerName "\"connectionManager\""
par Scenario.node[13].veinsmobility typename "\"org.car2x.veins.modules.mobility.traci.TraCIMobility\""
par Scenario.node[13].veinsmobility notAffectedByHostState true
par Scenario.node[13].veinsmobility x 0
par Scenario.node[13].veinsmobility y 0
par Scenario.node[13].veinsmobility z 1.895
par Scenario.node[13].veinsmobility xOrientation 1
par Scenario.node[13].veinsmobility yOrientation 0
par Scenario.node[13].veinsmobility zOrientation 0
par Scenario.node[13].veinsmobility hostPositionOffset 0m
attr unit m
par Scenario.node[13].veinsmobility setHostSpeed false
par Scenario.node[13].veinsmobility accidentCount 0
par Scenario.node[13].veinsmobility accidentStart 35.1808s
attr unit s
par Scenario.node[13].veinsmobility accidentDuration "uniform(30s, 60s)"
attr unit s
par Scenario.node[13].veinsmobility accidentInterval "uniform(30s, 60s)"
attr unit s
scalar Scenario.node[13].veinsmobility startTime 17.4
scalar Scenario.node[13].veinsmobility totalTime 82.3
scalar Scenario.node[13].veinsmobility stopTime 99.8
scalar Scenario.node[13].veinsmobility minSpeed 0.24892058195826
scalar Scenario.node[13].veinsmobility maxSpeed 13.702133613045
scalar Scenario.node[13].veinsmobility totalDistance 994.08659605122
scalar Scenario.node[13].veinsmobility totalCO2Emission 208.90711566502
par Scenario.node[13] typename "\"org.car2x.veins.nodes.Car\""
par Scenario.node[13] applType "\"TraCIDemo11p\""
par Scenario.node[13] nicType "\"Nic80211p\""
par Scenario.node[13] veinsmobilityType "\"org.car2x.veins.modules.mobility.traci.TraCIMobility\""
par Scenario.obstacles typename "\"org.car2x.veins.modules.obstacle.ObstacleControl\""
par Scenario.obstacles obstacles "<obstacles/> at content:1"
par Scenario.obstacles gridCellSize 250
par Scenario.annotations typename "\"org.car2x.veins.modules.world.annotations.AnnotationManager\""
par Scenario.annotations draw false
par Scenario.annotations annotations "<annotations/> at content:1"
par Scenario.connectionManager typename "\"org.car2x.veins.base.connectionManager.ConnectionManager\""
par Scenario.connectionManager sendDirect true
par Scenario.connectionManager maxInterfDist 500m
attr unit m
par Scenario.connectionManager drawMaxIntfDist false
par Scenario.world typename "\"org.car2x.veins.base.modules.BaseWorldUtility\""
par Scenario.world playgroundSizeX 1100m
attr unit m
par Scenario.world playgroundSizeY 200m
attr unit m
par Scenario.world playgroundSizeZ 50m
attr unit m
par Scenario.world useTorus false
par Scenario.world use2D false
par Scenario.manager typename "\"org.car2x.veins.modules.mobility.traci.TraCIScenarioManagerLaunchd\""
par Scenario.manager connectAt 0s
attr unit s
par Scenario.manager firstStepAt -1s
attr unit s
par Scenario.manager updateInterval 0.1s
attr unit s
par Scenario.manager moduleType "\"org.car2x.veins.nodes.Car\""
par Scenario.manager moduleName "\"node\""
par Scenario.manager moduleDisplayString "\"*='i=veins/node/car;is=vs'\""
par Scenario.manager trafficLightModuleType "\"\""
par Scenario.manager trafficLightModuleName "\"tls\""
par Scenario.manager trafficLightFilter "\"\""
par Scenario.manager trafficLightModuleDisplayString "\"i=veins/node/trafficlight;is=vs\""
par Scenario.manager host "\"localhost\""
par Scenario.manager port 9999
par Scenario.manager seed -1
par Scenario.manager autoShutdown true
par Scenario.manager margin 25
par Scenario.manager roiRoads "\"\""
par Scenario.manager roiRects "\"\""
par Scenario.manager penetrationRate 1
par Scenario.manager ignoreGuiCommands false
par Scenario.manager order -1
par Scenario.manager ignoreUnknownSubscriptionResults false
par Scenario.manager launchConfig "<launch>...</launch> at /home/vagrant/spe-homework-project/Project/simulations//straight_road.launchd.xml:1"
scalar Scenario.manager roiArea 0
par Scenario.roadsCanvasVisualizer typename "\"org.car2x.veins.visualizer.roads.RoadsCanvasVisualizer\""
par Scenario.roadsCanvasVisualizer enabled true
par Scenario.roadsCanvasVisualizer lineZIndex -1
par Scenario.roadsCanvasVisualizer lineColor "\"firebrick4\""
par Scenario.roadsCanvasVisualizer lineWidth 1
par Scenario.roadsCanvasVisualizer lineWidthZoom false
par Scenario.node[0].appl typename "\"org.car2x.veins.modules.application.traci.TraCIDemo11p\""
par Scenario.node[0].appl headerLength 80bit
attr unit bit
par Scenario.node[0].appl sendBeacons true
par Scenario.node[0].appl beaconLengthBits 256bit
attr unit bit
par Scenario.node[0].appl beaconUserPriority 7
par Scenario.node[0].appl beaconInterval 0.1s
attr unit s
par Scenario.node[0].appl dataLengthBits 1024bit
attr unit bit
par Scenario.node[0].appl dataOnSch false
par Scenario.node[0].appl dataUserPriority 7
par Scenario.node[0].appl avoidBeaconSynchronization true
par Scenario.node[0].appl sendWSA false
par Scenario.node[0].appl wsaLengthBits 250bit
attr unit bit
par Scenario.node[0].appl wsaInterval 1s
attr unit s
scalar Scenario.node[0].appl generatedWSMs 0
scalar Scenario.node[0].appl receivedWSMs 0
scalar Scenario.node[0].appl generatedBSMs 999
scalar Scenario.node[0].appl receivedBSMs 25355
scalar Scenario.node[0].appl generatedWSAs 0
scalar Scenario.node[0].appl receivedWSAs 0
par Scenario.node[0].nic.phy80211p typename "\"org.car2x.veins.modules.phy.PhyLayer80211p\""
par Scenario.node[0].nic.phy80211p recordStats false
par Scenario.node[0].nic.phy80211p usePropagationDelay true
par Scenario.node[0].nic.phy80211p noiseFloor -98dBm
attr unit dBm
par Scenario.node[0].nic.phy80211p useNoiseFloor true
par Scenario.node[0].nic.phy80211p antenna "<root>...</root> at content:1"
par Scenario.node[0].nic.phy80211p antennaOffsetX 0m
attr unit m
par Scenario.node[0].nic.phy80211p antennaOffsetY 0m
attr unit m
par Scenario.node[0].nic.phy80211p antennaOffsetZ 1.895m
attr unit m
par Scenario.node[0].nic.phy80211p antennaOffsetYaw 0rad
attr unit rad
par Scenario.node[0].nic.phy80211p analogueModels "<root>...</root> at /home/vagrant/spe-homework-project/Project/simulations//config_2.xml:2"
par Scenario.node[0].nic.phy80211p decider "<root>...</root> at /home/vagrant/spe-homework-project/Project/simulations//config_2.xml:2"
par Scenario.node[0].nic.phy80211p minPowerLevel -110dBm
attr unit dBm
par Scenario.node[0].nic.phy80211p timeRXToTX 0s
attr unit s
par Scenario.node[0].nic.phy80211p timeRXToSleep 0s
attr unit s
par Scenario.node[0].nic.phy80211p timeTXToRX 0s
attr unit s
par Scenario.node[0].nic.phy80211p timeTXToSleep 0s
attr unit s
par Scenario.node[0].nic.phy80211p timeSleepToRX 0s
attr unit s
par Scenario.node[0].nic.phy80211p timeSleepToTX 0s
attr unit s
par Scenario.node[0].nic.phy80211p initialRadioState 0
par Scenario.node[0].nic.phy80211p radioMinAtt 1
par Scenario.node[0].nic.phy80211p radioMaxAtt 0
par Scenario.node[0].nic.phy80211p nbRadioChannels 1
par Scenario.node[0].nic.phy80211p initialRadioChannel 0
par Scenario.node[0].nic.phy80211p ccaThreshold -65dBm
attr unit dBm
par Scenario.node[0].nic.phy80211p collectCollisionStatistics false
par Scenario.node[0].nic.phy80211p allowTxDuringRx false
scalar Scenario.node[0].nic.phy80211p busyTime 0.026517397397399
par Scenario.node[0].nic.mac1609_4 typename "\"org.car2x.veins.modules.mac.ieee80211p.Mac1609_4\""
par Scenario.node[0].nic.mac1609_4 notAffectedByHostState false
par Scenario.node[0].nic.mac1609_4 headerLength 0bit
attr unit bit
par Scenario.node[0].nic.mac1609_4 address "\"auto\""
par Scenario.node[0].nic.mac1609_4 useServiceChannel false
par Scenario.node[0].nic.mac1609_4 serviceChannel 1
par Scenario.node[0].nic.mac1609_4 bitrate 6000000bps
attr unit bps
par Scenario.node[0].nic.mac1609_4 syncOffset 0.0003s
attr unit s
par Scenario.node[0].nic.mac1609_4 txPower 20mW
attr unit mW
par Scenario.node[0].nic.mac1609_4 queueSize 0
par Scenario.node[0].nic.mac1609_4 dot11RTSThreshold 12000bit
attr unit bit
par Scenario.node[0].nic.mac1609_4 dot11ShortRetryLimit 7
par Scenario.node[0].nic.mac1609_4 dot11LongRetryLimit 4
par Scenario.node[0].nic.mac1609_4 ackLength 112bit
attr unit bit
par Scenario.node[0].nic.mac1609_4 useAcks false
par Scenario.node[0].nic.mac1609_4 frameErrorRate 0
par Scenario.node[0].nic.mac1609_4 ackErrorRate 0
scalar Scenario.node[0].nic.mac1609_4 ReceivedUnicastPackets 0
scalar Scenario.node[0].nic.mac1609_4 ReceivedBroadcasts 25355
scalar Scenario.node[0].nic.mac1609_4 SentPackets 999
scalar Scenario.node[0].nic.mac1609_4 SentAcknowledgements 0
scalar Scenario.node[0].nic.mac1609_4 RetriesExceeded 0
scalar Scenario.node[0].nic.mac1609_4 SNIRLostPackets 117
scalar Scenario.node[0].nic.mac1609_4 RXTXLostPackets 0
scalar Scenario.node[0].nic.mac1609_4 TotalLostPackets 117
scalar Scenario.node[0].nic.mac1609_4 DroppedPacketsInMac 0
scalar Scenario.node[0].nic.mac1609_4 TooLittleTime 0
scalar Scenario.node[0].nic.mac1609_4 TimesIntoBackoff 1652
scalar Scenario.node[0].nic.mac1609_4 SlotsBackoff 2502
scalar Scenario.node[0].nic.mac1609_4 NumInternalContention 0
scalar Scenario.node[0].nic.mac1609_4 totalBusyTime 2.745904027544
scalar Scenario.node[0].nic.mac1609_4 retriesExceeded:count 0
attr recordingmode count
attr source org_car2x_veins_modules_mac_sigRetriesExceeded
scalar Scenario.node[0].nic.mac1609_4 sentAcks:count 0
attr recordingmode count
attr source org_car2x_veins_modules_mac_sigSentAck
scalar Scenario.node[0].nic.mac1609_4 sentPackets:count 999
attr recordingmode count
attr source org_car2x_veins_modules_mac_sigSentPacket
scalar Scenario.node[0].nic.mac1609_4 collisions:count 0
attr recordingmode count
attr source org_car2x_veins_modules_mac_sigCollision
scalar Scenario.node[0].nic.mac1609_4 channelBusy:timeavg 0.027486526802243
attr recordingmode timeavg
attr source org_car2x_veins_modules_mac_sigChannelBusy
par Scenario.node[0].nic typename "\"org.car2x.veins.modules.nic.Nic80211p\""
par Scenario.node[0].nic connectionManagerName "\"connectionManager\""
par Scenario.node[0].veinsmobility typename "\"org.car2x.veins.modules.mobility.traci.TraCIMobility\""
par Scenario.node[0].veinsmobility notAffectedByHostState true
par Scenario.node[0].veinsmobility x 0
par Scenario.node[0].veinsmobility y 0
par Scenario.node[0].veinsmobility z 1.895
par Scenario.node[0].veinsmobility xOrientation 1
par Scenario.node[0].veinsmobility yOrientation 0
par Scenario.node[0].veinsmobility zOrientation 0
par Scenario.node[0].veinsmobility hostPositionOffset 0m
attr unit m
par Scenario.node[0].veinsmobility setHostSpeed false
par Scenario.node[0].veinsmobility accidentCount 0
par Scenario.node[0].veinsmobility accidentStart 46.4644s
attr unit s
par Scenario.node[0].veinsmobility accidentDuration "uniform(30s, 60s)"
attr unit s
par Scenario.node[0].veinsmobility accidentInterval "uniform(30s, 60s)"
attr unit s
scalar Scenario.node[0].veinsmobility startTime 0.1
scalar Scenario.node[0].veinsmobility totalTime 99.9
scalar Scenario.node[0].veinsmobility stopTime 100
scalar Scenario.node[0].veinsmobility minSpeed 0.25283962724311
scalar Scenario.node[0].veinsmobility maxSpeed 15.505355589648
scalar Scenario.node[0].veinsmobility totalDistance 1343.5864124435
scalar Scenario.node[0].veinsmobility totalCO2Emission 274.73303218241
par Scenario.node[0] typename "\"org.car2x.veins.nodes.Car\""
par Scenario.node[0] applType "\"TraCIDemo11p\""
par Scenario.node[0] nicType "\"Nic80211p\""
par Scenario.node[0] veinsmobilityType "\"org.car2x.veins.modules.mobility.traci.TraCIMobility\""
par Scenario.node[4].appl typename "\"org.car2x.veins.modules.application.traci.TraCIDemo11p\""
par Scenario.node[4].appl headerLength 80bit
attr unit bit
par Scenario.node[4].appl sendBeacons true
par Scenario.node[4].appl beaconLengthBits 256bit
attr unit bit
par Scenario.node[4].appl beaconUserPriority 7
par Scenario.node[4].appl beaconInterval 0.1s
attr unit s
par Scenario.node[4].appl dataLengthBits 1024bit
attr unit bit
par Scenario.node[4].appl dataOnSch false
par Scenario.node[4].appl dataUserPriority 7
par Scenario.node[4].appl avoidBeaconSynchronization true
par Scenario.node[4].appl sendWSA false
par Scenario.node[4].appl wsaLengthBits 250bit
attr unit bit
par Scenario.node[4].appl wsaInterval 1s
attr unit s
scalar Scenario.node[4].appl generatedWSMs 0
scalar Scenario.node[4].appl receivedWSMs 0
scalar Scenario.node[4].appl generatedBSMs 946
scalar Scenario.node[4].appl receivedBSMs 24611
scalar Scenario.node[4].appl generatedWSAs 0
scalar Scenario.node[4].appl receivedWSAs 0
par Scenario.node[4].nic.phy80211p typename "\"org.car2x.veins.modules.phy.PhyLayer80211p\""
par Scenario.node[4].nic.phy80211p recordStats false
par Scenario.node[4].nic.phy80211p usePropagationDelay true
par Scenario.node[4].nic.phy80211p noiseFloor -98dBm
attr unit dBm
par Scenario.node[4].nic.phy80211p useNoiseFloor true
par Scenario.node[4].nic.phy80211p antenna "<root>...</root> at content:1"
par Scenario.node[4].nic.phy80211p antennaOffsetX 0m
attr unit m
par Scenario.node[4].nic.phy80211p antennaOffsetY 0m
attr unit m
par Scenario.node[4].nic.phy80211p antennaOffsetZ 1.895m
attr unit m
par Scenario.node[4].nic.phy80211p antennaOffsetYaw 0rad
attr unit rad
par Scenario.node[4].nic.phy80211p analogueModels "<root>...</root> at /home/vagrant/spe-homework-project/Project/simulations//config_2.xml:2"
par Scenario.node[4].nic.phy80211p decider "<root>...</root> at /home/vagrant/spe-homework-project/Project/simulations//config_2.xml:2"
par Scenario.node[4].nic.phy80211p minPowerLevel -110dBm
attr unit dBm
par Scenario.node[4].nic.phy80211p timeRXToTX 0s
attr unit s
par Scenario.node[4].nic.phy80211p timeRXToSleep 0s
attr unit s
par Scenario.node[4].nic.phy80211p timeTXToRX 0s
attr unit s
par Scenario.node[4].nic.phy80211p timeTXToSleep 0s
attr unit s
par Scenario.node[4].nic.phy80211p timeSleepToRX 0s
attr unit s
par Scenario.node[4].nic.phy80211p timeSleepToTX 0s
attr unit s
par Scenario.node[4].nic.phy80211p initialRadioState 0
par Scenario.node[4].nic.phy80211p radioMinAtt 1
par Scenario.node[4].nic.phy80211p radioMaxAtt 0
par Scenario.node[4].nic.phy80211p nbRadioChannels 1
par Scenario.node[4].nic.phy80211p initialRadioChannel 0
par Scenario.node[4].nic.phy80211p ccaThreshold -65dBm
attr unit dBm
par Scenario.node[4].nic.phy80211p collectCollisionStatistics false
par Scenario.node[4].nic.phy80211p allowTxDuringRx false
scalar Scenario.node[4].nic.phy80211p busyTime 0.027461057082455
par Scenario.node[4].nic.mac1609_4 typename "\"org.car2x.veins.modules.mac.ieee80211p.Mac1609_4\""
par Scenario.node[4].nic.mac1609_4 notAffectedByHostState false
par Scenario.node[4].nic.mac1609_4 headerLength 0bit
attr unit bit
par Scenario.node[4].nic.mac1609_4 address "\"auto\""
par Scenario.node[4].nic.mac1609_4 useServiceChannel false
par Scenario.node[4].nic.mac1609_4 serviceChannel 1
par Scenario.node[4].nic.mac1609_4 bitrate 6000000bps
attr unit bps
par Scenario.node[4].nic.mac1609_4 syncOffset 0.0003s
attr unit s
par Scenario.node[4].nic.mac1609_4 txPower 20mW
attr unit mW
par Scenario.node[4].nic.mac1609_4 queueSize 0
par Scenario.node[4].nic.mac1609_4 dot11RTSThreshold 12000bit
attr unit bit
par Scenario.node[4].nic.mac1609_4 dot11ShortRetryLimit 7
par Scenario.node[4].nic.mac1609_4 dot11LongRetryLimit 4
par Scenario.node[4].nic.mac1609_4 ackLength 112bit
attr unit bit
par Scenario.node[4].nic.mac1609_4 useAcks false
par Scenario.node[4].nic.mac1609_4 frameErrorRate 0
par Scenario.node[4].nic.mac1609_4 ackErrorRate 0
scalar Scenario.node[4].nic.mac1609_4 ReceivedUnicastPackets 0
scalar Scenario.node[4].nic.mac1609_4 ReceivedBroadcasts 24611
scalar Scenario.node[4].nic.mac1609_4 SentPackets 946
scalar Scenario.node[4].nic.mac1609_4 SentAcknowledgements 0
scalar Scenario.node[4].nic.mac1609_4 RetriesExceeded 0
scalar Scenario.node[4].nic.mac1609_4 SNIRLostPackets 368
scalar Scenario.node[4].nic.mac1609_4 RXTXLostPackets 0
scalar Scenario.node[4].nic.mac1609_4 TotalLostPackets 368
scalar Scenario.node[4].nic.mac1609_4 DroppedPacketsInMac 0
scalar Scenario.node[4].nic.mac1609_4 TooLittleTime 0
scalar Scenario.node[4].nic.mac1609_4 TimesIntoBackoff 946
scalar Scenario.node[4].nic.mac1609_4 SlotsBackoff 1402
scalar Scenario.node[4].nic.mac1609_4 NumInternalContention 0
scalar Scenario.node[4].nic.mac1609_4 totalBusyTime 2.685300338864
scalar Scenario.node[4].nic.mac1609_4 retriesExceeded:count 0
attr recordingmode count
attr source org_car2x_veins_modules_mac_sigRetriesExceeded
scalar Scenario.node[4].nic.mac1609_4 sentAcks:count 0
attr recordingmode count
attr source org_car2x_veins_modules_mac_sigSentAck
scalar Scenario.node[4].nic.mac1609_4 sentPackets:count 946
attr recordingmode count
attr source org_car2x_veins_modules_mac_sigSentPacket
scalar Scenario.node[4].nic.mac1609_4 collisions:count 0
attr recordingmode count
attr source org_car2x_veins_modules_mac_sigCollision
scalar Scenario.node[4].nic.mac1609_4 channelBusy:timeavg 0.028385838677211
attr recordingmode timeavg
attr source org_car2x_veins_modules_mac_sigChannelBusy
par Scenario.node[4].nic typename "\"org.car2x.veins.modules.nic.Nic80211p\""
par Scenario.node[4].nic connectionManagerName "\"connectionManager\""
par Scenario.node[4].veinsmobility typename "\"org.car2x.veins.modules.mobility.traci.TraCIMobility\""
par Scenario.node[4].veinsmobility notAffectedByHostState true
par Scenario.node[4].veinsmobility x 0
par Scenario.node[4].veinsmobility y 0
par Scenario.node[4].veinsmobility z 1.895
par Scenario.node[4].veinsmobility xOrientation 1
par Scenario.node[4].veinsmobility yOrientation 0
par Scenario.node[4].veinsmobility zOrientation 0
par Scenario.node[4].veinsmobility hostPositionOffset 0m
attr unit m
par Scenario.node[4].veinsmobility setHostSpeed false
par Scenario.node[4].veinsmobility accidentCount 0
par Scenario.node[4].veinsmobility accidentStart 31.7409s
attr unit s
par Scenario.node[4].veinsmobility accidentDuration "uniform(30s, 60s)"
attr unit s
par Scenario.node[4].veinsmobility accidentInterval "uniform(30s, 60s)"
attr unit s
scalar Scenario.node[4].veinsmobility startTime 5.4
scalar Scenario.node[4].veinsmobility totalTime 94.6
scalar Scenario.node[4].veinsmobility stopTime 100
scalar Scenario.node[4].veinsmobility minSpeed 0.25390377680911
scalar Scenario.node[4].veinsmobility maxSpeed 14.102492832861
scalar Scenario.node[4].veinsmobility totalDistance 1225.9720453667
scalar Scenario.node[4].veinsmobility totalCO2Emission 255.48199224239
par Scenario.node[4] typename "\"org.car2x.veins.nodes.Car\""
par Scenario.node[4] applType "\"TraCIDemo11p\""
par Scenario.node[4] nicType "\"Nic80211p\""
par Scenario.node[4] veinsmobilityType "\"org.car2x.veins.modules.mobility.traci.TraCIMobility\""
par Scenario.node[5].appl typename "\"org.car2x.veins.modules.application.traci.TraCIDemo11p\""
par Scenario.node[5].appl headerLength 80bit
attr unit bit
par Scenario.node[5].appl sendBeacons true
par Scenario.node[5].appl beaconLengthBits 256bit
attr unit bit
par Scenario.node[5].appl beaconUserPriority 7
par Scenario.node[5].appl beaconInterval 0.1s
attr unit s
par Scenario.node[5].appl dataLengthBits 1024bit
attr unit bit
par Scenario.node[5].appl dataOnSch false
par Scenario.node[5].appl dataUserPriority 7
par Scenario.node[5].appl avoidBeaconSynchronization true
par Scenario.node[5].appl sendWSA false
par Scenario.node[5].appl wsaLengthBits 250bit
attr unit bit
par Scenario.node[5].appl wsaInterval 1s
attr unit s
scalar Scenario.node[5].appl generatedWSMs 0
scalar Scenario.node[5].appl receivedWSMs 0
scalar Scenario.node[5].appl generatedBSMs 933
scalar Scenario.node[5].appl receivedBSMs 24311
scalar Scenario.node[5].appl generatedWSAs 0
scalar Scenario.node[5].appl receivedWSAs 0
par Scenario.node[5].nic.phy80211p typename "\"org.car2x.veins.modules.phy.PhyLayer80211p\""
par Scenario.node[5].nic.phy80211p recordStats false
par Scenario.node[5].nic.phy80211p usePropagationDelay true
par Scenario.node[5].nic.phy80211p noiseFloor -98dBm
attr unit dBm
par Scenario.node[5].nic.phy80211p useNoiseFloor true
par Scenario.node[5].nic.phy80211p antenna "<root>...</root> at content:1"
par Scenario.node[5].nic.phy80211p antennaOffsetX 0m
attr unit m
par Scenario.node[5].nic.phy80211p antennaOffsetY 0m
attr unit m
par Scenario.node[5].nic.phy80211p antennaOffsetZ 1.895m
attr unit m
par Scenario.node[5].nic.phy80211p antennaOffsetYaw 0rad
attr unit rad
par Scenario.node[5].nic.phy80211p analogueModels "<root>...</root> at /home/vagrant/spe-homework-project/Project/simulations//config_2.xml:2"
par Scenario.node[5].nic.phy80211p decider "<root>...</root> at /home/vagrant/spe-homework-project/Project/simulations//config_2.xml:2"
par Scenario.node[5].nic.phy80211p minPowerLevel -110dBm
attr unit dBm
par Scenario.node[5].nic.phy80211p timeRXToTX 0s
attr unit s
par Scenario.node[5].nic.phy80211p timeRXToSleep 0s
attr unit s
par Scenario.node[5].nic.phy80211p timeTXToRX 0s
attr unit s
par Scenario.node[5].nic.phy80211p timeTXToSleep 0s
attr unit s
par Scenario.node[5].nic.phy80211p timeSleepToRX 0s
attr unit s
par Scenario.node[5].nic.phy80211p timeSleepToTX 0s
attr unit s
par Scenario.node[5].nic.phy80211p initialRadioState 0
par Scenario.node[5].nic.phy80211p radioMinAtt 1
par Scenario.node[5].nic.phy80211p radioMaxAtt 0
par Scenario.node[5].nic.phy80211p nbRadioChannels 1
par Scenario.node[5].nic.phy80211p initialRadioChannel 0
par Scenario.node[5].nic.phy80211p ccaThreshold -65dBm
attr unit dBm
par Scenario.node[5].nic.phy80211p collectCollisionStatistics false
par Scenario.node[5].nic.phy80211p allowTxDuringRx false
scalar Scenario.node[5].nic.phy80211p busyTime 0.027586195069671
par Scenario.node[5].nic.mac1609_4 typename "\"org.car2x.veins.modules.mac.ieee80211p.Mac1609_4\""
par Scenario.node[5].nic.mac1609_4 notAffectedByHostState false
par Scenario.node[5].nic.mac1609_4 headerLength 0bit
attr unit bit
par Scenario.node[5].nic.mac1609_4 address "\"auto\""
par Scenario.node[5].nic.mac1609_4 useServiceChannel false
par Scenario.node[5].nic.mac1609_4 serviceChannel 1
par Scenario.node[5].nic.mac1609_4 bitrate 6000000bps
attr unit bps
par Scenario.node[5].nic.mac1609_4 syncOffset 0.0003s
attr unit s
par Scenario.node[5].nic.mac1609_4 txPower 20mW
attr unit mW
par Scenario.node[5].nic.mac1609_4 queueSize 0
par Scenario.node[5].nic.mac1609_4 dot11RTSThreshold 12000bit
attr unit bit
par Scenario.node[5].nic.mac1609_4 dot11ShortRetryLimit 7
par Scenario.node[5].nic.mac1609_4 dot11LongRetryLimit 4
par Scenario.node[5].nic.mac1609_4 ackLength 112bit
attr unit bit
par Scenario.node[5].nic.mac1609_4 useAcks false
par Scenario.node[5].nic.mac1609_4 frameErrorRate 0
par Scenario.node[5].nic.mac1609_4 ackErrorRate 0
scalar Scenario.node[5].nic.mac1609_4 ReceivedUnicastPackets 0
scalar Scenario.node[5].nic.mac1609_4 ReceivedBroadcasts 24311
scalar Scenario.node[5].nic.mac1609_4 SentPackets 933
scalar Scenario.node[5].nic.mac1609_4 SentAcknowledgements 0
scalar Scenario.node[5].nic.mac1609_4 RetriesExceeded 0
scalar Scenario.node[5].nic.mac1609_4 SNIRLostPackets 437
scalar Scenario.node[5].nic.mac1609_4 RXTXLostPackets 0
scalar Scenario.node[5].nic.mac1609_4 TotalLostPackets 437
scalar Scenario.node[5].nic.mac1609_4 DroppedPacketsInMac 0
scalar Scenario.node[5].nic.mac1609_4 TooLittleTime 0
scalar Scenario.node[5].nic.mac1609_4 TimesIntoBackoff 933
scalar Scenario.node[5].nic.mac1609_4 SlotsBackoff 1445
scalar Scenario.node[5].nic.mac1609_4 NumInternalContention 0
scalar Scenario.node[5].nic.mac1609_4 totalBusyTime 2.664041071565
scalar Scenario.node[5].nic.mac1609_4 retriesExceeded:count 0
attr recordingmode count
attr source org_car2x_veins_modules_mac_sigRetriesExceeded
scalar Scenario.node[5].nic.mac1609_4 sentAcks:count 0
attr recordingmode count
attr source org_car2x_veins_modules_mac_sigSentAck
scalar Scenario.node[5].nic.mac1609_4 sentPackets:count 933
attr recordingmode count
attr source org_car2x_veins_modules_mac_sigSentPacket
scalar Scenario.node[5].nic.mac1609_4 collisions:count 0
attr recordingmode count
attr source org_car2x_veins_modules_mac_sigCollision
scalar Scenario.node[5].nic.mac1609_4 channelBusy:timeavg 0.028553494872081
attr recordingmode timeavg
attr source org_car2x_veins_modules_mac_sigChannelBusy
par Scenario.node[5].nic typename "\"org.car2x.veins.modules.nic.Nic80211p\""
par Scenario.node[5].nic connectionManagerName "\"connectionManager\""
par Scenario.node[5].veinsmobility typename "\"org.car2x.veins.modules.mobility.traci.TraCIMobility\""
par Scenario.node[5].veinsmobility notAffectedByHostState true
par Scenario.node[5].veinsmobility x 0
par Scenario.node[5].veinsmobility y 0
par Scenario.node[5].veinsmobility z 1.895
par Scenario.node[5].veinsmobility xOrientation 1
par Scenario.node[5].veinsmobility yOrientation 0
par Scenario.node[5].veinsmobility zOrientation 0
par Scenario.node[5].veinsmobility hostPositionOffset 0m
attr unit m
par Scenario.node[5].veinsmobility setHostSpeed false
par Scenario.node[5].veinsmobility accidentCount 0
par Scenario.node[5].veinsmobility accidentStart 41.953s
attr unit s
par Scenario.node[5].veinsmobility accidentDuration "uniform(30s, 60s)"
attr unit s
par Scenario.node[5].veinsmobility accidentInterval "uniform(30s, 60s)"
attr unit s
scalar Scenario.node[5].veinsmobility startTime 6.7
scalar Scenario.node[5].veinsmobility totalTime 93.3
scalar Scenario.node[5].veinsmobility stopTime 100
scalar Scenario.node[5].veinsmobility minSpeed 0.24843623923161
scalar Scenario.node[5].veinsmobility maxSpeed 16.031584415237
scalar Scenario.node[5].veinsmobility totalDistance 1093.945302349
scalar Scenario.node[5].veinsmobility totalCO2Emission 252.56593236815
par Scenario.node[5] typename "\"org.car2x.veins.nodes.Car\""
par Scenario.node[5] applType "\"TraCIDemo11p\""
par Scenario.node[5] nicType "\"Nic80211p\""
par Scenario.node[5] veinsmobilityType "\"org.car2x.veins.modules.mobility.traci.TraCIMobility\""
par Scenario.node[6].appl typename "\"org.car2x.veins.modules.application.traci.TraCIDemo11p\""
par Scenario.node[6].appl headerLength 80bit
attr unit bit
par Scenario.node[6].appl sendBeacons true
par Scenario.node[6].appl beaconLengthBits 256bit
attr unit bit
par Scenario.node[6].appl beaconUserPriority 7
par Scenario.node[6].appl beaconInterval 0.1s
attr unit s
par Scenario.node[6].appl dataLengthBits 1024bit
attr unit bit
par Scenario.node[6].appl dataOnSch false
par Scenario.node[6].appl dataUserPriority 7
par Scenario.node[6].appl avoidBeaconSynchronization true
par Scenario.node[6].appl sendWSA false
par Scenario.node[6].appl wsaLengthBits 250bit
attr unit bit
par Scenario.node[6].appl wsaInterval 1s
attr unit s
scalar Scenario.node[6].appl generatedWSMs 0
scalar Scenario.node[6].appl receivedWSMs 0
scalar Scenario.node[6].appl generatedBSMs 920
scalar Scenario.node[6].appl receivedBSMs 26701
scalar Scenario.node[6].appl generatedWSAs 0
scalar Scenario.node[6].appl receivedWSAs 0
par Scenario.node[6].nic.phy80211p typename "\"org.car2x.veins.modules.phy.PhyLayer80211p\""
par Scenario.node[6].nic.phy80211p recordStats false
par Scenario.node[6].nic.phy80211p usePropagationDelay true
par Scenario.node[6].nic.phy80211p noiseFloor -98dBm
attr unit dBm
par Scenario.node[6].nic.phy80211p useNoiseFloor true
par Scenario.node[6].nic.phy80211p antenna "<root>...</root> at content:1"
par Scenario.node[6].nic.phy80211p antennaOffsetX 0m
attr unit m
par Scenario.node[6].nic.phy80211p antennaOffsetY 0m
attr unit m
par Scenario.node[6].nic.phy80211p antennaOffsetZ 1.895m
attr unit m
par Scenario.node[6].nic.phy80211p antennaOffsetYaw 0rad
attr unit rad
par Scenario.node[6].nic.phy80211p analogueModels "<root>...</root> at /home/vagrant/spe-homework-project/Project/simulations//config_2.xml:2"
par Scenario.node[6].nic.phy80211p decider "<root>...</root> at /home/vagrant/spe-homework-project/Project/simulations//config_2.xml:2"
par Scenario.node[6].nic.phy80211p minPowerLevel -110dBm
attr unit dBm
par Scenario.node[6].nic.phy80211p timeRXToTX 0s
attr unit s
par Scenario.node[6].nic.phy80211p timeRXToSleep 0s
attr unit s
par Scenario.node[6].nic.phy80211p timeTXToRX 0s
attr unit s
par Scenario.node[6].nic.phy80211p timeTXToSleep 0s
attr unit s
par Scenario.node[6].nic.phy80211p timeSleepToRX 0s
attr unit s
par Scenario.node[6].nic.phy80211p timeSleepToTX 0s
attr unit s
par Scenario.node[6].nic.phy80211p initialRadioState 0
par Scenario.node[6].nic.phy80211p radioMinAtt 1
par Scenario.node[6].nic.phy80211p radioMaxAtt 0
par Scenario.node[6].nic.phy80211p nbRadioChannels 1
par Scenario.node[6].nic.phy80211p initialRadioChannel 0
par Scenario.node[6].nic.phy80211p ccaThreshold -65dBm
attr unit dBm
par Scenario.node[6].nic.phy80211p collectCollisionStatistics false
par Scenario.node[6].nic.phy80211p allowTxDuringRx false
scalar Scenario.node[6].nic.phy80211p busyTime 0.030650608695652
par Scenario.node[6].nic.mac1609_4 typename "\"org.car2x.veins.modules.mac.ieee80211p.Mac1609_4\""
par Scenario.node[6].nic.mac1609_4 notAffectedByHostState false
par Scenario.node[6].nic.mac1609_4 headerLength 0bit
attr unit bit
par Scenario.node[6].nic.mac1609_4 address "\"auto\""
par Scenario.node[6].nic.mac1609_4 useServiceChannel false
par Scenario.node[6].nic.mac1609_4 serviceChannel 1
par Scenario.node[6].nic.mac1609_4 bitrate 6000000bps
attr unit bps
par Scenario.node[6].nic.mac1609_4 syncOffset 0.0003s
attr unit s
par Scenario.node[6].nic.mac1609_4 txPower 20mW
attr unit mW
par Scenario.node[6].nic.mac1609_4 queueSize 0
par Scenario.node[6].nic.mac1609_4 dot11RTSThreshold 12000bit
attr unit bit
par Scenario.node[6].nic.mac1609_4 dot11ShortRetryLimit 7
par Scenario.node[6].nic.mac1609_4 dot11LongRetryLimit 4
par Scenario.node[6].nic.mac1609_4 ackLength 112bit
attr unit bit
par Scenario.node[6].nic.mac1609_4 useAcks false
par Scenario.node[6].nic.mac1609_4 frameErrorRate 0
par Scenario.node[6].nic.mac1609_4 ackErrorRate 0
scalar Scenario.node[6].nic.mac1609_4 ReceivedUnicastPackets 0
scalar Scenario.node[6].nic.mac1609_4 ReceivedBroadcasts 26701
scalar Scenario.node[6].nic.mac1609_4 SentPackets 920
scalar Scenario.node[6].nic.mac1609_4 SentAcknowledgements 0
scalar Scenario.node[6].nic.mac1609_4 RetriesExceeded 0
scalar Scenario.node[6].nic.mac1609_4 SNIRLostPackets 413
scalar Scenario.node[6].nic.mac1609_4 RXTXLostPackets 0
scalar Scenario.node[6].nic.mac1609_4 TotalLostPackets 413
scalar Scenario.node[6].nic.mac1609_4 DroppedPacketsInMac 0
scalar Scenario.node[6].nic.mac1609_4 TooLittleTime 0
scalar Scenario.node[6].nic.mac1609_4 TimesIntoBackoff 920
scalar Scenario.node[6].nic.mac1609_4 SlotsBackoff 1429
scalar Scenario.node[6].nic.mac1609_4 NumInternalContention 0
scalar Scenario.node[6].nic.mac1609_4 totalBusyTime 2.903057567431
scalar Scenario.node[6].nic.mac1609_4 retriesExceeded:count 0
attr recordingmode count
attr source org_car2x_veins_modules_mac_sigRetriesExceeded
scalar Scenario.node[6].nic.mac1609_4 sentAcks:count 0
attr recordingmode count
attr source org_car2x_veins_modules_mac_sigSentAck
scalar Scenario.node[6].nic.mac1609_4 sentPackets:count 920
attr recordingmode count
attr source org_car2x_veins_modules_mac_sigSentPacket
scalar Scenario.node[6].nic.mac1609_4 collisions:count 0
attr recordingmode count
attr source org_car2x_veins_modules_mac_sigCollision
scalar Scenario.node[6].nic.mac1609_4 channelBusy:timeavg 0.031554973559032
attr recordingmode timeavg
attr source org_car2x_veins_modules_mac_sigChannelBusy
par Scenario.node[6].nic typename "\"org.car2x.veins.modules.nic.Nic80211p\""
par Scenario.node[6].nic connectionManagerName "\"connectionManager\""
par Scenario.node[6].veinsmobility typename "\"org.car2x.veins.modules.mobility.traci.TraCIMobility\""
par Scenario.node[6].veinsmobility notAffectedByHostState true
par Scenario.node[6].veinsmobility x 0
par Scenario.node[6].veinsmobility y 0
par Scenario.node[6].veinsmobility z 1.895
par Scenario.node[6].veinsmobility xOrientation 1
par Scenario.node[6].veinsmobility yOrientation 0
par Scenario.node[6].veinsmobility zOrientation 0
par Scenario.node[6].veinsmobility hostPositionOffset 0m
attr unit m
par Scenario.node[6].veinsmobility setHostSpeed false
par Scenario.node[6].veinsmobility accidentCount 0
par Scenario.node[6].veinsmobility accidentStart 37.0579s
attr unit s
par Scenario.node[6].veinsmobility accidentDuration "uniform(30s, 60s)"
attr unit s
par Scenario.node[6].veinsmobility accidentInterval "uniform(30s, 60s)"
attr unit s
scalar Scenario.node[6].veinsmobility startTime 8
scalar Scenario.node[6].veinsmobility totalTime 92
scalar Scenario.node[6].veinsmobility stopTime 100
scalar Scenario.node[6].veinsmobility minSpeed 0.25022217960958
scalar Scenario.node[6].veinsmobility maxSpeed 10.617467395278
scalar Scenario.node[6].veinsmobility totalDistance 943.53945070477
scalar Scenario.node[6].veinsmobility totalCO2Emission 193.22084165457
par Scenario.node[6] typename "\"org.car2x.veins.nodes.Car\""
par Scenario.node[6] applType "\"TraCIDemo11p\""
par Scenario.node[6] nicType "\"Nic80211p\""
par Scenario.node[6] veinsmobilityType "\"org.car2x.veins.modules.mobility.traci.TraCIMobility\""
par Scenario.node[8].appl typename "\"org.car2x.veins.modules.application.traci.TraCIDemo11p\""
par Scenario.node[8].appl headerLength 80bit
attr unit bit
par Scenario.node[8].appl sendBeacons true
par Scenario.node[8].appl beaconLengthBits 256bit
attr unit bit
par Scenario.node[8].appl beaconUserPriority 7
par Scenario.node[8].appl beaconInterval 0.1s
attr unit s
par Scenario.node[8].appl dataLengthBits 1024bit
attr unit bit
par Scenario.node[8].appl dataOnSch false
par Scenario.node[8].appl dataUserPriority 7
par Scenario.node[8].appl avoidBeaconSynchronization true
par Scenario.node[8].appl sendWSA false
par Scenario.node[8].appl wsaLengthBits 250bit
attr unit bit
par Scenario.node[8].appl wsaInterval 1s
attr unit s
scalar Scenario.node[8].appl generatedWSMs 0
scalar Scenario.node[8].appl receivedWSMs 0
scalar Scenario.node[8].appl generatedBSMs 894
scalar Scenario.node[8].appl receivedBSMs 26693
scalar Scenario.node[8].appl generatedWSAs 0
scalar Scenario.node[8].appl receivedWSAs 0
par Scenario.node[8].nic.phy80211p typename "\"org.car2x.veins.modules.phy.PhyLayer80211p\""
par Scenario.node[8].nic.phy80211p recordStats false
par Scenario.node[8].nic.phy80211p usePropagationDelay true
par Scenario.node[8].nic.phy80211p noiseFloor -98dBm
attr unit dBm
par Scenario.node[8].nic.phy80211p useNoiseFloor true
par Scenario.node[8].nic.phy80211p antenna "<root>...</root> at content:1"
par Scenario.node[8].nic.phy80211p antennaOffsetX 0m
attr unit m
par Scenario.node[8].nic.phy80211p antennaOffsetY 0m
attr unit m
par Scenario.node[8].nic.phy80211p antennaOffsetZ 1.895m
attr unit m
par Scenario.node[8].nic.phy80211p antennaOffsetYaw 0rad
attr unit rad
par Scenario.node[8].nic.phy80211p analogueModels "<root>...</root> at /home/vagrant/spe-homework-project/Project/simulations//config_2.xml:2"
par Scenario.node[8].nic.phy80211p decider "<root>...</root> at /home/vagrant/spe-homework-project/Project/simulations//config_2.xml:2"
par Scenario.node[8].nic.phy80211p minPowerLevel -110dBm
attr unit dBm
par Scenario.node[8].nic.phy80211p timeRXToTX 0s
attr unit s
par Scenario.node[8].nic.phy80211p timeRXToSleep 0s
attr unit s
par Scenario.node[8].nic.phy80211p timeTXToRX 0s
attr unit s
par Scenario.node[8].nic.phy80211p timeTXToSleep 0s
attr unit s
par Scenario.node[8].nic.phy80211p timeSleepToRX 0s
attr unit s
par Scenario.node[8].nic.phy80211p timeSleepToTX 0s
attr unit s
par Scenario.node[8].nic.phy80211p initialRadioState 0
par Scenario.node[8].nic.phy80211p radioMinAtt 1
par Scenario.node[8].nic.phy80211p radioMaxAtt 0
par Scenario.node[8].nic.phy80211p nbRadioChannels 1
par Scenario.node[8].nic.phy80211p initialRadioChannel 0
par Scenario.node[8].nic.phy80211p ccaThreshold -65dBm
attr unit dBm
par Scenario.node[8].nic.phy80211p collectCollisionStatistics false
par Scenario.node[8].nic.phy80211p allowTxDuringRx false
scalar Scenario.node[8].nic.phy80211p busyTime 0.031610648769575
par Scenario.node[8].nic.mac1609_4 typename "\"org.car2x.veins.modules.mac.ieee80211p.Mac1609_4\""
[...]
attr unit dBm
par Scenario.node[64].nic.phy80211p timeRXToTX 0s
attr unit s
par Scenario.node[64].nic.phy80211p timeRXToSleep 0s
attr unit s
par Scenario.node[64].nic.phy80211p timeTXToRX 0s
attr unit s
par Scenario.node[64].nic.phy80211p timeTXToSleep 0s
attr unit s
par Scenario.node[64].nic.phy80211p timeSleepToRX 0s
attr unit s
par Scenario.node[64].nic.phy80211p timeSleepToTX 0s
attr unit s
par Scenario.node[64].nic.phy80211p initialRadioState 0
par Scenario.node[64].nic.phy80211p radioMinAtt 1
par Scenario.node[64].nic.phy80211p radioMaxAtt 0
par Scenario.node[64].nic.phy80211p nbRadioChannels 1
par Scenario.node[64].nic.phy80211p initialRadioChannel 0
par Scenario.node[64].nic.phy80211p ccaThreshold -65dBm
attr unit dBm
par Scenario.node[64].nic.phy80211p collectCollisionStatistics false
par Scenario.node[64].nic.phy80211p allowTxDuringRx false
scalar Scenario.node[64].nic.phy80211p busyTime 0.034025660377359
par Scenario.node[64].nic.mac1609_4 typename "\"org.car2x.veins.modules.mac.ieee80211p.Mac1609_4\""
par Scenario.node[64].nic.mac1609_4 notAffectedByHostState false
par Scenario.node[64].nic.mac1609_4 headerLength 0bit
attr unit bit
par Scenario.node[64].nic.mac1609_4 address "\"auto\""
par Scenario.node[64].nic.mac1609_4 useServiceChannel false
par Scenario.node[64].nic.mac1609_4 serviceChannel 1
par Scenario.node[64].nic.mac1609_4 bitrate 6000000bps
attr unit bps
par Scenario.node[64].nic.mac1609_4 syncOffset 0.0003s
attr unit s
par Scenario.node[64].nic.mac1609_4 txPower 20mW
attr unit mW
par Scenario.node[64].nic.mac1609_4 queueSize 0
par Scenario.node[64].nic.mac1609_4 dot11RTSThreshold 12000bit
attr unit bit
par Scenario.node[64].nic.mac1609_4 dot11ShortRetryLimit 7
par Scenario.node[64].nic.mac1609_4 dot11LongRetryLimit 4
par Scenario.node[64].nic.mac1609_4 ackLength 112bit
attr unit bit
par Scenario.node[64].nic.mac1609_4 useAcks false
par Scenario.node[64].nic.mac1609_4 frameErrorRate 0
par Scenario.node[64].nic.mac1609_4 ackErrorRate 0
scalar Scenario.node[64].nic.mac1609_4 ReceivedUnicastPackets 0
scalar Scenario.node[64].nic.mac1609_4 ReceivedBroadcasts 1732
scalar Scenario.node[64].nic.mac1609_4 SentPackets 53
scalar Scenario.node[64].nic.mac1609_4 SentAcknowledgements 0
scalar Scenario.node[64].nic.mac1609_4 RetriesExceeded 0
scalar Scenario.node[64].nic.mac1609_4 SNIRLostPackets 2
scalar Scenario.node[64].nic.mac1609_4 RXTXLostPackets 0
scalar Scenario.node[64].nic.mac1609_4 TotalLostPackets 2
scalar Scenario.node[64].nic.mac1609_4 DroppedPacketsInMac 0
scalar Scenario.node[64].nic.mac1609_4 TooLittleTime 0
scalar Scenario.node[64].nic.mac1609_4 TimesIntoBackoff 53
scalar Scenario.node[64].nic.mac1609_4 SlotsBackoff 79
scalar Scenario.node[64].nic.mac1609_4 NumInternalContention 0
scalar Scenario.node[64].nic.mac1609_4 totalBusyTime 0.185797000082
scalar Scenario.node[64].nic.mac1609_4 retriesExceeded:count 0
attr recordingmode count
attr source org_car2x_veins_modules_mac_sigRetriesExceeded
scalar Scenario.node[64].nic.mac1609_4 sentAcks:count 0
attr recordingmode count
attr source org_car2x_veins_modules_mac_sigSentAck
scalar Scenario.node[64].nic.mac1609_4 sentPackets:count 53
attr recordingmode count
attr source org_car2x_veins_modules_mac_sigSentPacket
scalar Scenario.node[64].nic.mac1609_4 collisions:count 0
attr recordingmode count
attr source org_car2x_veins_modules_mac_sigCollision
scalar Scenario.node[64].nic.mac1609_4 channelBusy:timeavg 0.035056037751321
attr recordingmode timeavg
attr source org_car2x_veins_modules_mac_sigChannelBusy
par Scenario.node[64].nic typename "\"org.car2x.veins.modules.nic.Nic80211p\""
par Scenario.node[64].nic connectionManagerName "\"connectionManager\""
par Scenario.node[64].veinsmobility typename "\"org.car2x.veins.modules.mobility.traci.TraCIMobility\""
par Scenario.node[64].veinsmobility notAffectedByHostState true
par Scenario.node[64].veinsmobility x 0
par Scenario.node[64].veinsmobility y 0
par Scenario.node[64].veinsmobility z 1.895
par Scenario.node[64].veinsmobility xOrientation 1
par Scenario.node[64].veinsmobility yOrientation 0
par Scenario.node[64].veinsmobility zOrientation 0
par Scenario.node[64].veinsmobility hostPositionOffset 0m
attr unit m
par Scenario.node[64].veinsmobility setHostSpeed false
par Scenario.node[64].veinsmobility accidentCount 0
par Scenario.node[64].veinsmobility accidentStart 53.356s
attr unit s
par Scenario.node[64].veinsmobility accidentDuration "uniform(30s, 60s)"
attr unit s
par Scenario.node[64].veinsmobility accidentInterval "uniform(30s, 60s)"
attr unit s
scalar Scenario.node[64].veinsmobility startTime 94.7
scalar Scenario.node[64].veinsmobility totalTime 5.3
scalar Scenario.node[64].veinsmobility stopTime 100
scalar Scenario.node[64].veinsmobility minSpeed 0.25943170553073
scalar Scenario.node[64].veinsmobility maxSpeed 10.636396606661
scalar Scenario.node[64].veinsmobility totalDistance 29.169147733935
scalar Scenario.node[64].veinsmobility totalCO2Emission 21.216981768362
par Scenario.node[64] typename "\"org.car2x.veins.nodes.Car\""
par Scenario.node[64] applType "\"TraCIDemo11p\""
par Scenario.node[64] nicType "\"Nic80211p\""
par Scenario.node[64] veinsmobilityType "\"org.car2x.veins.modules.mobility.traci.TraCIMobility\""
par Scenario.node[65].appl typename "\"org.car2x.veins.modules.application.traci.TraCIDemo11p\""
par Scenario.node[65].appl headerLength 80bit
attr unit bit
par Scenario.node[65].appl sendBeacons true
par Scenario.node[65].appl beaconLengthBits 256bit
attr unit bit
par Scenario.node[65].appl beaconUserPriority 7
par Scenario.node[65].appl beaconInterval 0.1s
attr unit s
par Scenario.node[65].appl dataLengthBits 1024bit
attr unit bit
par Scenario.node[65].appl dataOnSch false
par Scenario.node[65].appl dataUserPriority 7
par Scenario.node[65].appl avoidBeaconSynchronization true
par Scenario.node[65].appl sendWSA false
par Scenario.node[65].appl wsaLengthBits 250bit
attr unit bit
par Scenario.node[65].appl wsaInterval 1s
attr unit s
scalar Scenario.node[65].appl generatedWSMs 0
scalar Scenario.node[65].appl receivedWSMs 0
scalar Scenario.node[65].appl generatedBSMs 26
scalar Scenario.node[65].appl receivedBSMs 842
scalar Scenario.node[65].appl generatedWSAs 0
scalar Scenario.node[65].appl receivedWSAs 0
par Scenario.node[65].nic.phy80211p typename "\"org.car2x.veins.modules.phy.PhyLayer80211p\""
par Scenario.node[65].nic.phy80211p recordStats false
par Scenario.node[65].nic.phy80211p usePropagationDelay true
par Scenario.node[65].nic.phy80211p noiseFloor -98dBm
attr unit dBm
par Scenario.node[65].nic.phy80211p useNoiseFloor true
par Scenario.node[65].nic.phy80211p antenna "<root>...</root> at content:1"
par Scenario.node[65].nic.phy80211p antennaOffsetX 0m
attr unit m
par Scenario.node[65].nic.phy80211p antennaOffsetY 0m
attr unit m
par Scenario.node[65].nic.phy80211p antennaOffsetZ 1.895m
attr unit m
par Scenario.node[65].nic.phy80211p antennaOffsetYaw 0rad
attr unit rad
par Scenario.node[65].nic.phy80211p analogueModels "<root>...</root> at /home/vagrant/spe-homework-project/Project/simulations//config_2.xml:2"
par Scenario.node[65].nic.phy80211p decider "<root>...</root> at /home/vagrant/spe-homework-project/Project/simulations//config_2.xml:2"
par Scenario.node[65].nic.phy80211p minPowerLevel -110dBm
attr unit dBm
par Scenario.node[65].nic.phy80211p timeRXToTX 0s
attr unit s
par Scenario.node[65].nic.phy80211p timeRXToSleep 0s
attr unit s
par Scenario.node[65].nic.phy80211p timeTXToRX 0s
attr unit s
par Scenario.node[65].nic.phy80211p timeTXToSleep 0s
attr unit s
par Scenario.node[65].nic.phy80211p timeSleepToRX 0s
attr unit s
par Scenario.node[65].nic.phy80211p timeSleepToTX 0s
attr unit s
par Scenario.node[65].nic.phy80211p initialRadioState 0
par Scenario.node[65].nic.phy80211p radioMinAtt 1
par Scenario.node[65].nic.phy80211p radioMaxAtt 0
par Scenario.node[65].nic.phy80211p nbRadioChannels 1
par Scenario.node[65].nic.phy80211p initialRadioChannel 0
par Scenario.node[65].nic.phy80211p ccaThreshold -65dBm
attr unit dBm
par Scenario.node[65].nic.phy80211p collectCollisionStatistics false
par Scenario.node[65].nic.phy80211p allowTxDuringRx false
scalar Scenario.node[65].nic.phy80211p busyTime 0.033680000000001
par Scenario.node[65].nic.mac1609_4 typename "\"org.car2x.veins.modules.mac.ieee80211p.Mac1609_4\""
par Scenario.node[65].nic.mac1609_4 notAffectedByHostState false
par Scenario.node[65].nic.mac1609_4 headerLength 0bit
attr unit bit
par Scenario.node[65].nic.mac1609_4 address "\"auto\""
par Scenario.node[65].nic.mac1609_4 useServiceChannel false
par Scenario.node[65].nic.mac1609_4 serviceChannel 1
par Scenario.node[65].nic.mac1609_4 bitrate 6000000bps
attr unit bps
par Scenario.node[65].nic.mac1609_4 syncOffset 0.0003s
attr unit s
par Scenario.node[65].nic.mac1609_4 txPower 20mW
attr unit mW
par Scenario.node[65].nic.mac1609_4 queueSize 0
par Scenario.node[65].nic.mac1609_4 dot11RTSThreshold 12000bit
attr unit bit
par Scenario.node[65].nic.mac1609_4 dot11ShortRetryLimit 7
par Scenario.node[65].nic.mac1609_4 dot11LongRetryLimit 4
par Scenario.node[65].nic.mac1609_4 ackLength 112bit
attr unit bit
par Scenario.node[65].nic.mac1609_4 useAcks false
par Scenario.node[65].nic.mac1609_4 frameErrorRate 0
par Scenario.node[65].nic.mac1609_4 ackErrorRate 0
scalar Scenario.node[65].nic.mac1609_4 ReceivedUnicastPackets 0
scalar Scenario.node[65].nic.mac1609_4 ReceivedBroadcasts 842
scalar Scenario.node[65].nic.mac1609_4 SentPackets 26
scalar Scenario.node[65].nic.mac1609_4 SentAcknowledgements 0
scalar Scenario.node[65].nic.mac1609_4 RetriesExceeded 0
scalar Scenario.node[65].nic.mac1609_4 SNIRLostPackets 0
scalar Scenario.node[65].nic.mac1609_4 RXTXLostPackets 0
scalar Scenario.node[65].nic.mac1609_4 TotalLostPackets 0
scalar Scenario.node[65].nic.mac1609_4 DroppedPacketsInMac 0
scalar Scenario.node[65].nic.mac1609_4 TooLittleTime 0
scalar Scenario.node[65].nic.mac1609_4 TimesIntoBackoff 26
scalar Scenario.node[65].nic.mac1609_4 SlotsBackoff 42
scalar Scenario.node[65].nic.mac1609_4 NumInternalContention 0
scalar Scenario.node[65].nic.mac1609_4 totalBusyTime 0.090298
scalar Scenario.node[65].nic.mac1609_4 retriesExceeded:count 0
attr recordingmode count
attr source org_car2x_veins_modules_mac_sigRetriesExceeded
scalar Scenario.node[65].nic.mac1609_4 sentAcks:count 0
attr recordingmode count
attr source org_car2x_veins_modules_mac_sigSentAck
scalar Scenario.node[65].nic.mac1609_4 sentPackets:count 26
attr recordingmode count
attr source org_car2x_veins_modules_mac_sigSentPacket
scalar Scenario.node[65].nic.mac1609_4 collisions:count 0
attr recordingmode count
attr source org_car2x_veins_modules_mac_sigCollision
scalar Scenario.node[65].nic.mac1609_4 channelBusy:timeavg 0.034730000000001
attr recordingmode timeavg
attr source org_car2x_veins_modules_mac_sigChannelBusy
par Scenario.node[65].nic typename "\"org.car2x.veins.modules.nic.Nic80211p\""
par Scenario.node[65].nic connectionManagerName "\"connectionManager\""
par Scenario.node[65].veinsmobility typename "\"org.car2x.veins.modules.mobility.traci.TraCIMobility\""
par Scenario.node[65].veinsmobility notAffectedByHostState true
par Scenario.node[65].veinsmobility x 0
par Scenario.node[65].veinsmobility y 0
par Scenario.node[65].veinsmobility z 1.895
par Scenario.node[65].veinsmobility xOrientation 1
par Scenario.node[65].veinsmobility yOrientation 0
par Scenario.node[65].veinsmobility zOrientation 0
par Scenario.node[65].veinsmobility hostPositionOffset 0m
attr unit m
par Scenario.node[65].veinsmobility setHostSpeed false
par Scenario.node[65].veinsmobility accidentCount 0
par Scenario.node[65].veinsmobility accidentStart 58.4761s
attr unit s
par Scenario.node[65].veinsmobility accidentDuration "uniform(30s, 60s)"
attr unit s
par Scenario.node[65].veinsmobility accidentInterval "uniform(30s, 60s)"
attr unit s
scalar Scenario.node[65].veinsmobility startTime 97.4
scalar Scenario.node[65].veinsmobility totalTime 2.6
scalar Scenario.node[65].veinsmobility stopTime 100
scalar Scenario.node[65].veinsmobility minSpeed 0.25087809044495
scalar Scenario.node[65].veinsmobility maxSpeed 4.9358521490079
scalar Scenario.node[65].veinsmobility totalDistance 7.1903550340661
scalar Scenario.node[65].veinsmobility totalCO2Emission 6.1686707940181
par Scenario.node[65] typename "\"org.car2x.veins.nodes.Car\""
par Scenario.node[65] applType "\"TraCIDemo11p\""
par Scenario.node[65] nicType "\"Nic80211p\""
par Scenario.node[65] veinsmobilityType "\"org.car2x.veins.modules.mobility.traci.TraCIMobility\""
par Scenario.node[66].appl typename "\"org.car2x.veins.modules.application.traci.TraCIDemo11p\""
par Scenario.node[66].appl headerLength 80bit
attr unit bit
par Scenario.node[66].appl sendBeacons true
par Scenario.node[66].appl beaconLengthBits 256bit
attr unit bit
par Scenario.node[66].appl beaconUserPriority 7
par Scenario.node[66].appl beaconInterval 0.1s
attr unit s
par Scenario.node[66].appl dataLengthBits 1024bit
attr unit bit
par Scenario.node[66].appl dataOnSch false
par Scenario.node[66].appl dataUserPriority 7
par Scenario.node[66].appl avoidBeaconSynchronization true
par Scenario.node[66].appl sendWSA false
par Scenario.node[66].appl wsaLengthBits 250bit
attr unit bit
par Scenario.node[66].appl wsaInterval 1s
attr unit s
scalar Scenario.node[66].appl generatedWSMs 0
scalar Scenario.node[66].appl receivedWSMs 0
scalar Scenario.node[66].appl generatedBSMs 2
scalar Scenario.node[66].appl receivedBSMs 56
scalar Scenario.node[66].appl generatedWSAs 0
scalar Scenario.node[66].appl receivedWSAs 0
par Scenario.node[66].nic.phy80211p typename "\"org.car2x.veins.modules.phy.PhyLayer80211p\""
par Scenario.node[66].nic.phy80211p recordStats false
par Scenario.node[66].nic.phy80211p usePropagationDelay true
par Scenario.node[66].nic.phy80211p noiseFloor -98dBm
attr unit dBm
par Scenario.node[66].nic.phy80211p useNoiseFloor true
par Scenario.node[66].nic.phy80211p antenna "<root>...</root> at content:1"
par Scenario.node[66].nic.phy80211p antennaOffsetX 0m
attr unit m
par Scenario.node[66].nic.phy80211p antennaOffsetY 0m
attr unit m
par Scenario.node[66].nic.phy80211p antennaOffsetZ 1.895m
attr unit m
par Scenario.node[66].nic.phy80211p antennaOffsetYaw 0rad
attr unit rad
par Scenario.node[66].nic.phy80211p analogueModels "<root>...</root> at /home/vagrant/spe-homework-project/Project/simulations//config_2.xml:2"
par Scenario.node[66].nic.phy80211p decider "<root>...</root> at /home/vagrant/spe-homework-project/Project/simulations//config_2.xml:2"
par Scenario.node[66].nic.phy80211p minPowerLevel -110dBm
attr unit dBm
par Scenario.node[66].nic.phy80211p timeRXToTX 0s
attr unit s
par Scenario.node[66].nic.phy80211p timeRXToSleep 0s
attr unit s
par Scenario.node[66].nic.phy80211p timeTXToRX 0s
attr unit s
par Scenario.node[66].nic.phy80211p timeTXToSleep 0s
attr unit s
par Scenario.node[66].nic.phy80211p timeSleepToRX 0s
attr unit s
par Scenario.node[66].nic.phy80211p timeSleepToTX 0s
attr unit s
par Scenario.node[66].nic.phy80211p initialRadioState 0
par Scenario.node[66].nic.phy80211p radioMinAtt 1
par Scenario.node[66].nic.phy80211p radioMaxAtt 0
par Scenario.node[66].nic.phy80211p nbRadioChannels 1
par Scenario.node[66].nic.phy80211p initialRadioChannel 0
par Scenario.node[66].nic.phy80211p ccaThreshold -65dBm
attr unit dBm
par Scenario.node[66].nic.phy80211p collectCollisionStatistics false
par Scenario.node[66].nic.phy80211p allowTxDuringRx false
scalar Scenario.node[66].nic.phy80211p busyTime 0.02912
par Scenario.node[66].nic.mac1609_4 typename "\"org.car2x.veins.modules.mac.ieee80211p.Mac1609_4\""
par Scenario.node[66].nic.mac1609_4 notAffectedByHostState false
par Scenario.node[66].nic.mac1609_4 headerLength 0bit
attr unit bit
par Scenario.node[66].nic.mac1609_4 address "\"auto\""
par Scenario.node[66].nic.mac1609_4 useServiceChannel false
par Scenario.node[66].nic.mac1609_4 serviceChannel 1
par Scenario.node[66].nic.mac1609_4 bitrate 6000000bps
attr unit bps
par Scenario.node[66].nic.mac1609_4 syncOffset 0.0003s
attr unit s
par Scenario.node[66].nic.mac1609_4 txPower 20mW
attr unit mW
par Scenario.node[66].nic.mac1609_4 queueSize 0
par Scenario.node[66].nic.mac1609_4 dot11RTSThreshold 12000bit
attr unit bit
par Scenario.node[66].nic.mac1609_4 dot11ShortRetryLimit 7
par Scenario.node[66].nic.mac1609_4 dot11LongRetryLimit 4
par Scenario.node[66].nic.mac1609_4 ackLength 112bit
attr unit bit
par Scenario.node[66].nic.mac1609_4 useAcks false
par Scenario.node[66].nic.mac1609_4 frameErrorRate 0
par Scenario.node[66].nic.mac1609_4 ackErrorRate 0
scalar Scenario.node[66].nic.mac1609_4 ReceivedUnicastPackets 0
scalar Scenario.node[66].nic.mac1609_4 ReceivedBroadcasts 56
scalar Scenario.node[66].nic.mac1609_4 SentPackets 2
scalar Scenario.node[66].nic.mac1609_4 SentAcknowledgements 0
scalar Scenario.node[66].nic.mac1609_4 RetriesExceeded 0
scalar Scenario.node[66].nic.mac1609_4 SNIRLostPackets 0
scalar Scenario.node[66].nic.mac1609_4 RXTXLostPackets 0
scalar Scenario.node[66].nic.mac1609_4 TotalLostPackets 0
scalar Scenario.node[66].nic.mac1609_4 DroppedPacketsInMac 0
scalar Scenario.node[66].nic.mac1609_4 TooLittleTime 0
scalar Scenario.node[66].nic.mac1609_4 TimesIntoBackoff 4
scalar Scenario.node[66].nic.mac1609_4 SlotsBackoff 3
scalar Scenario.node[66].nic.mac1609_4 NumInternalContention 0
scalar Scenario.node[66].nic.mac1609_4 totalBusyTime 0.006034
scalar Scenario.node[66].nic.mac1609_4 retriesExceeded:count 0
attr recordingmode count
attr source org_car2x_veins_modules_mac_sigRetriesExceeded
scalar Scenario.node[66].nic.mac1609_4 sentAcks:count 0
attr recordingmode count
attr source org_car2x_veins_modules_mac_sigSentAck
scalar Scenario.node[66].nic.mac1609_4 sentPackets:count 2
attr recordingmode count
attr source org_car2x_veins_modules_mac_sigSentPacket
scalar Scenario.node[66].nic.mac1609_4 collisions:count 0
attr recordingmode count
attr source org_car2x_veins_modules_mac_sigCollision
scalar Scenario.node[66].nic.mac1609_4 channelBusy:timeavg 0.03017
attr recordingmode timeavg
attr source org_car2x_veins_modules_mac_sigChannelBusy
par Scenario.node[66].nic typename "\"org.car2x.veins.modules.nic.Nic80211p\""
par Scenario.node[66].nic connectionManagerName "\"connectionManager\""
par Scenario.node[66].veinsmobility typename "\"org.car2x.veins.modules.mobility.traci.TraCIMobility\""
par Scenario.node[66].veinsmobility notAffectedByHostState true
par Scenario.node[66].veinsmobility x 0
par Scenario.node[66].veinsmobility y 0
par Scenario.node[66].veinsmobility z 1.895
par Scenario.node[66].veinsmobility xOrientation 1
par Scenario.node[66].veinsmobility yOrientation 0
par Scenario.node[66].veinsmobility zOrientation 0
par Scenario.node[66].veinsmobility hostPositionOffset 0m
attr unit m
par Scenario.node[66].veinsmobility setHostSpeed false
par Scenario.node[66].veinsmobility accidentCount 0
par Scenario.node[66].veinsmobility accidentStart 56.3209s
attr unit s
par Scenario.node[66].veinsmobility accidentDuration "uniform(30s, 60s)"
attr unit s
par Scenario.node[66].veinsmobility accidentInterval "uniform(30s, 60s)"
attr unit s
scalar Scenario.node[66].veinsmobility startTime 99.8
scalar Scenario.node[66].veinsmobility totalTime 0.2
scalar Scenario.node[66].veinsmobility stopTime 100
scalar Scenario.node[66].veinsmobility minSpeed 0.25637486943114
scalar Scenario.node[66].veinsmobility maxSpeed 0.49064728033164
scalar Scenario.node[66].veinsmobility totalDistance 0.074702214976242
scalar Scenario.node[66].veinsmobility totalCO2Emission 0.14106974784621
par Scenario.node[66] typename "\"org.car2x.veins.nodes.Car\""
par Scenario.node[66] applType "\"TraCIDemo11p\""
par Scenario.node[66] nicType "\"Nic80211p\""
par Scenario.node[66] veinsmobilityType "\"org.car2x.veins.modules.mobility.traci.TraCIMobility\""
par Scenario typename "\"org.car2x.veins.nodes.Scenario\""
par Scenario playgroundSizeX 1100m
attr unit m
par Scenario playgroundSizeY 200m
attr unit m
par Scenario playgroundSizeZ 50m
attr unit m

