version 3
run Scenario1-8-20260625-12:05:20-4527
attr configname Scenario1
attr datetime 20260625-12:05:20
attr datetimef 20260625-120520
attr experiment Scenario1
attr inifile omnetpp.ini
attr iterationvars ""
attr iterationvarsd ""
attr iterationvarsf ""
attr measurement ""
attr network org.car2x.veins.nodes.Scenario
attr processid 4527
attr repetition 8
attr replication #8
attr resultdir results
attr runnumber 8
attr seedset 8
config image-path ../../../veins/images
config description "Pure Free Space (No ground, no buildings)"
config *.annotations.draw false
config *.**.nic.phy80211p.decider "xmldoc(\"config_1.xml\")"
config *.**.nic.phy80211p.analogueModels "xmldoc(\"config_1.xml\")"
config repeat 10
config seed-set 8
config network org.car2x.veins.nodes.Scenario
config sim-time-limit 100s
config *.playgroundSizeX 600m
config *.playgroundSizeY 600m
config *.playgroundSizeZ 50m
config *.manager.updateInterval 0.1s
config *.manager.host "\"localhost\""
config *.manager.port 9999
config *.manager.autoShutdown true
config *.manager.launchConfig "xmldoc(\"simulation.launchd.xml\")"
config *.node[*].veinsmobility.x 0
config *.node[*].veinsmobility.y 0
config *.node[*].veinsmobility.z 1.895
config *.node[*].applType "\"TraCIDemo11p\""
config *.node[*].appl.headerLength "80 bit"
config *.node[*].appl.sendBeacons true
config *.node[*].appl.dataOnSch false
config *.node[*].appl.beaconInterval 0.1s
config *.connectionManager.sendDirect true
config *.connectionManager.maxInterfDist 500m
config *.connectionManager.drawMaxIntfDist false
config *.**.nic.mac1609_4.useServiceChannel false
config *.**.nic.mac1609_4.txPower 20mW
config *.**.nic.mac1609_4.bitrate 6Mbps
config *.**.nic.phy80211p.minPowerLevel -110dBm
config *.**.nic.phy80211p.useNoiseFloor true
config *.**.nic.phy80211p.noiseFloor -98dBm
config *.**.nic.phy80211p.usePropagationDelay true
config **.vector-recording true
config **.scalar-recording true
config *.**.nic.phy80211p.*.vector-recording true
config *.**.nic.mac1609_4.*.vector-recording true
config **.rcvdPower:vector.vector-recording true
config **.snir:vector.vector-recording true

par Scenario.node[13].appl typename "\"org.car2x.veins.modules.application.traci.TraCIDemo11p\""
par Scenario.node[13].appl headerLength 80bit
attr unit bit
par Scenario.node[13].appl sendBeacons true
par Scenario.node[13].appl beaconLengthBits 256bit
attr unit bit
par Scenario.node[13].appl beaconUserPriority 7
par Scenario.node[13].appl beaconInterval 0.1s
attr unit s
par Scenario.node[13].appl dataLengthBits 1024bit
attr unit bit
par Scenario.node[13].appl dataOnSch false
par Scenario.node[13].appl dataUserPriority 7
par Scenario.node[13].appl avoidBeaconSynchronization true
par Scenario.node[13].appl sendWSA false
par Scenario.node[13].appl wsaLengthBits 250bit
attr unit bit
par Scenario.node[13].appl wsaInterval 1s
attr unit s
scalar Scenario.node[13].appl generatedWSMs 0
scalar Scenario.node[13].appl receivedWSMs 0
scalar Scenario.node[13].appl generatedBSMs 147
scalar Scenario.node[13].appl receivedBSMs 2910
scalar Scenario.node[13].appl generatedWSAs 0
scalar Scenario.node[13].appl receivedWSAs 0
par Scenario.node[13].nic.phy80211p typename "\"org.car2x.veins.modules.phy.PhyLayer80211p\""
par Scenario.node[13].nic.phy80211p recordStats false
par Scenario.node[13].nic.phy80211p usePropagationDelay true
par Scenario.node[13].nic.phy80211p noiseFloor -98dBm
attr unit dBm
par Scenario.node[13].nic.phy80211p useNoiseFloor true
par Scenario.node[13].nic.phy80211p antenna "<root>...</root> at content:1"
par Scenario.node[13].nic.phy80211p antennaOffsetX 0m
attr unit m
par Scenario.node[13].nic.phy80211p antennaOffsetY 0m
attr unit m
par Scenario.node[13].nic.phy80211p antennaOffsetZ 1.895m
attr unit m
par Scenario.node[13].nic.phy80211p antennaOffsetYaw 0rad
attr unit rad
par Scenario.node[13].nic.phy80211p analogueModels "<root>...</root> at /home/vagrant/spe-homework-project/Project/simulations//config_1.xml:2"
par Scenario.node[13].nic.phy80211p decider "<root>...</root> at /home/vagrant/spe-homework-project/Project/simulations//config_1.xml:2"
par Scenario.node[13].nic.phy80211p minPowerLevel -110dBm
attr unit dBm
par Scenario.node[13].nic.phy80211p timeRXToTX 0s
attr unit s
par Scenario.node[13].nic.phy80211p timeRXToSleep 0s
attr unit s
par Scenario.node[13].nic.phy80211p timeTXToRX 0s
attr unit s
par Scenario.node[13].nic.phy80211p timeTXToSleep 0s
attr unit s
par Scenario.node[13].nic.phy80211p timeSleepToRX 0s
attr unit s
par Scenario.node[13].nic.phy80211p timeSleepToTX 0s
attr unit s
par Scenario.node[13].nic.phy80211p initialRadioState 0
par Scenario.node[13].nic.phy80211p radioMinAtt 1
par Scenario.node[13].nic.phy80211p radioMaxAtt 0
par Scenario.node[13].nic.phy80211p nbRadioChannels 1
par Scenario.node[13].nic.phy80211p initialRadioChannel 0
par Scenario.node[13].nic.phy80211p ccaThreshold -65dBm
attr unit dBm
par Scenario.node[13].nic.phy80211p collectCollisionStatistics false
par Scenario.node[13].nic.phy80211p allowTxDuringRx false
scalar Scenario.node[13].nic.phy80211p busyTime 0.020594829931972
par Scenario.node[13].nic.mac1609_4 typename "\"org.car2x.veins.modules.mac.ieee80211p.Mac1609_4\""
par Scenario.node[13].nic.mac1609_4 notAffectedByHostState false
par Scenario.node[13].nic.mac1609_4 headerLength 0bit
attr unit bit
par Scenario.node[13].nic.mac1609_4 address "\"auto\""
par Scenario.node[13].nic.mac1609_4 useServiceChannel false
par Scenario.node[13].nic.mac1609_4 serviceChannel 1
par Scenario.node[13].nic.mac1609_4 bitrate 6000000bps
attr unit bps
par Scenario.node[13].nic.mac1609_4 syncOffset 0.0003s
attr unit s
par Scenario.node[13].nic.mac1609_4 txPower 20mW
attr unit mW
par Scenario.node[13].nic.mac1609_4 queueSize 0
par Scenario.node[13].nic.mac1609_4 dot11RTSThreshold 12000bit
attr unit bit
par Scenario.node[13].nic.mac1609_4 dot11ShortRetryLimit 7
par Scenario.node[13].nic.mac1609_4 dot11LongRetryLimit 4
par Scenario.node[13].nic.mac1609_4 ackLength 112bit
attr unit bit
par Scenario.node[13].nic.mac1609_4 useAcks false
par Scenario.node[13].nic.mac1609_4 frameErrorRate 0
par Scenario.node[13].nic.mac1609_4 ackErrorRate 0
scalar Scenario.node[13].nic.mac1609_4 ReceivedUnicastPackets 0
scalar Scenario.node[13].nic.mac1609_4 ReceivedBroadcasts 2910
scalar Scenario.node[13].nic.mac1609_4 SentPackets 147
scalar Scenario.node[13].nic.mac1609_4 SentAcknowledgements 0
scalar Scenario.node[13].nic.mac1609_4 RetriesExceeded 0
scalar Scenario.node[13].nic.mac1609_4 SNIRLostPackets 0
scalar Scenario.node[13].nic.mac1609_4 RXTXLostPackets 0
scalar Scenario.node[13].nic.mac1609_4 TotalLostPackets 0
scalar Scenario.node[13].nic.mac1609_4 DroppedPacketsInMac 0
scalar Scenario.node[13].nic.mac1609_4 TooLittleTime 0
scalar Scenario.node[13].nic.mac1609_4 TimesIntoBackoff 147
scalar Scenario.node[13].nic.mac1609_4 SlotsBackoff 217
scalar Scenario.node[13].nic.mac1609_4 NumInternalContention 0
scalar Scenario.node[13].nic.mac1609_4 totalBusyTime 0.318075
scalar Scenario.node[13].nic.mac1609_4 retriesExceeded:count 0
attr recordingmode count
attr source org_car2x_veins_modules_mac_sigRetriesExceeded
scalar Scenario.node[13].nic.mac1609_4 sentAcks:count 0
attr recordingmode count
attr source org_car2x_veins_modules_mac_sigSentAck
scalar Scenario.node[13].nic.mac1609_4 sentPackets:count 147
attr recordingmode count
attr source org_car2x_veins_modules_mac_sigSentPacket
scalar Scenario.node[13].nic.mac1609_4 collisions:count 0
attr recordingmode count
attr source org_car2x_veins_modules_mac_sigCollision
scalar Scenario.node[13].nic.mac1609_4 channelBusy:timeavg 0.021644560188911
attr recordingmode timeavg
attr source org_car2x_veins_modules_mac_sigChannelBusy
par Scenario.node[13].nic typename "\"org.car2x.veins.modules.nic.Nic80211p\""
par Scenario.node[13].nic connectionManagerName "\"connectionManager\""
par Scenario.node[13].veinsmobility typename "\"org.car2x.veins.modules.mobility.traci.TraCIMobility\""
par Scenario.node[13].veinsmobility notAffectedByHostState true
par Scenario.node[13].veinsmobility x 0
par Scenario.node[13].veinsmobility y 0
par Scenario.node[13].veinsmobility z 1.895
par Scenario.node[13].veinsmobility xOrientation 1
par Scenario.node[13].veinsmobility yOrientation 0
par Scenario.node[13].veinsmobility zOrientation 0
par Scenario.node[13].veinsmobility hostPositionOffset 0m
attr unit m
par Scenario.node[13].veinsmobility setHostSpeed false
par Scenario.node[13].veinsmobility accidentCount 0
par Scenario.node[13].veinsmobility accidentStart 44.5937s
attr unit s
par Scenario.node[13].veinsmobility accidentDuration "uniform(30s, 60s)"
attr unit s
par Scenario.node[13].veinsmobility accidentInterval "uniform(30s, 60s)"
attr unit s
scalar Scenario.node[13].veinsmobility startTime 13.1
scalar Scenario.node[13].veinsmobility totalTime 14.6
scalar Scenario.node[13].veinsmobility stopTime 27.8
scalar Scenario.node[13].veinsmobility minSpeed 0.25729001301876
scalar Scenario.node[13].veinsmobility maxSpeed 11.322411386115
scalar Scenario.node[13].veinsmobility totalDistance 134.35901296773
scalar Scenario.node[13].veinsmobility totalCO2Emission 42.312326508641
par Scenario.node[13] typename "\"org.car2x.veins.nodes.Car\""
par Scenario.node[13] applType "\"TraCIDemo11p\""
par Scenario.node[13] nicType "\"Nic80211p\""
par Scenario.node[13] veinsmobilityType "\"org.car2x.veins.modules.mobility.traci.TraCIMobility\""
par Scenario.node[6].appl typename "\"org.car2x.veins.modules.application.traci.TraCIDemo11p\""
par Scenario.node[6].appl headerLength 80bit
attr unit bit
par Scenario.node[6].appl sendBeacons true
par Scenario.node[6].appl beaconLengthBits 256bit
attr unit bit
par Scenario.node[6].appl beaconUserPriority 7
par Scenario.node[6].appl beaconInterval 0.1s
attr unit s
par Scenario.node[6].appl dataLengthBits 1024bit
attr unit bit
par Scenario.node[6].appl dataOnSch false
par Scenario.node[6].appl dataUserPriority 7
par Scenario.node[6].appl avoidBeaconSynchronization true
par Scenario.node[6].appl sendWSA false
par Scenario.node[6].appl wsaLengthBits 250bit
attr unit bit
par Scenario.node[6].appl wsaInterval 1s
attr unit s
scalar Scenario.node[6].appl generatedWSMs 0
scalar Scenario.node[6].appl receivedWSMs 0
scalar Scenario.node[6].appl generatedBSMs 260
scalar Scenario.node[6].appl receivedBSMs 4700
scalar Scenario.node[6].appl generatedWSAs 0
scalar Scenario.node[6].appl receivedWSAs 0
par Scenario.node[6].nic.phy80211p typename "\"org.car2x.veins.modules.phy.PhyLayer80211p\""
par Scenario.node[6].nic.phy80211p recordStats false
par Scenario.node[6].nic.phy80211p usePropagationDelay true
par Scenario.node[6].nic.phy80211p noiseFloor -98dBm
attr unit dBm
par Scenario.node[6].nic.phy80211p useNoiseFloor true
par Scenario.node[6].nic.phy80211p antenna "<root>...</root> at content:1"
par Scenario.node[6].nic.phy80211p antennaOffsetX 0m
attr unit m
par Scenario.node[6].nic.phy80211p antennaOffsetY 0m
attr unit m
par Scenario.node[6].nic.phy80211p antennaOffsetZ 1.895m
attr unit m
par Scenario.node[6].nic.phy80211p antennaOffsetYaw 0rad
attr unit rad
par Scenario.node[6].nic.phy80211p analogueModels "<root>...</root> at /home/vagrant/spe-homework-project/Project/simulations//config_1.xml:2"
par Scenario.node[6].nic.phy80211p decider "<root>...</root> at /home/vagrant/spe-homework-project/Project/simulations//config_1.xml:2"
par Scenario.node[6].nic.phy80211p minPowerLevel -110dBm
attr unit dBm
par Scenario.node[6].nic.phy80211p timeRXToTX 0s
attr unit s
par Scenario.node[6].nic.phy80211p timeRXToSleep 0s
attr unit s
par Scenario.node[6].nic.phy80211p timeTXToRX 0s
attr unit s
par Scenario.node[6].nic.phy80211p timeTXToSleep 0s
attr unit s
par Scenario.node[6].nic.phy80211p timeSleepToRX 0s
attr unit s
par Scenario.node[6].nic.phy80211p timeSleepToTX 0s
attr unit s
par Scenario.node[6].nic.phy80211p initialRadioState 0
par Scenario.node[6].nic.phy80211p radioMinAtt 1
par Scenario.node[6].nic.phy80211p radioMaxAtt 0
par Scenario.node[6].nic.phy80211p nbRadioChannels 1
par Scenario.node[6].nic.phy80211p initialRadioChannel 0
par Scenario.node[6].nic.phy80211p ccaThreshold -65dBm
attr unit dBm
par Scenario.node[6].nic.phy80211p collectCollisionStatistics false
par Scenario.node[6].nic.phy80211p allowTxDuringRx false
scalar Scenario.node[6].nic.phy80211p busyTime 0.018803999999999
par Scenario.node[6].nic.mac1609_4 typename "\"org.car2x.veins.modules.mac.ieee80211p.Mac1609_4\""
par Scenario.node[6].nic.mac1609_4 notAffectedByHostState false
par Scenario.node[6].nic.mac1609_4 headerLength 0bit
attr unit bit
par Scenario.node[6].nic.mac1609_4 address "\"auto\""
par Scenario.node[6].nic.mac1609_4 useServiceChannel false
par Scenario.node[6].nic.mac1609_4 serviceChannel 1
par Scenario.node[6].nic.mac1609_4 bitrate 6000000bps
attr unit bps
par Scenario.node[6].nic.mac1609_4 syncOffset 0.0003s
attr unit s
par Scenario.node[6].nic.mac1609_4 txPower 20mW
attr unit mW
par Scenario.node[6].nic.mac1609_4 queueSize 0
par Scenario.node[6].nic.mac1609_4 dot11RTSThreshold 12000bit
attr unit bit
par Scenario.node[6].nic.mac1609_4 dot11ShortRetryLimit 7
par Scenario.node[6].nic.mac1609_4 dot11LongRetryLimit 4
par Scenario.node[6].nic.mac1609_4 ackLength 112bit
attr unit bit
par Scenario.node[6].nic.mac1609_4 useAcks false
par Scenario.node[6].nic.mac1609_4 frameErrorRate 0
par Scenario.node[6].nic.mac1609_4 ackErrorRate 0
scalar Scenario.node[6].nic.mac1609_4 ReceivedUnicastPackets 0
scalar Scenario.node[6].nic.mac1609_4 ReceivedBroadcasts 4700
scalar Scenario.node[6].nic.mac1609_4 SentPackets 260
scalar Scenario.node[6].nic.mac1609_4 SentAcknowledgements 0
scalar Scenario.node[6].nic.mac1609_4 RetriesExceeded 0
scalar Scenario.node[6].nic.mac1609_4 SNIRLostPackets 0
scalar Scenario.node[6].nic.mac1609_4 RXTXLostPackets 0
scalar Scenario.node[6].nic.mac1609_4 TotalLostPackets 0
scalar Scenario.node[6].nic.mac1609_4 DroppedPacketsInMac 0
scalar Scenario.node[6].nic.mac1609_4 TooLittleTime 0
scalar Scenario.node[6].nic.mac1609_4 TimesIntoBackoff 260
scalar Scenario.node[6].nic.mac1609_4 SlotsBackoff 397
scalar Scenario.node[6].nic.mac1609_4 NumInternalContention 0
scalar Scenario.node[6].nic.mac1609_4 totalBusyTime 0.5161
scalar Scenario.node[6].nic.mac1609_4 retriesExceeded:count 0
attr recordingmode count
attr source org_car2x_veins_modules_mac_sigRetriesExceeded
scalar Scenario.node[6].nic.mac1609_4 sentAcks:count 0
attr recordingmode count
attr source org_car2x_veins_modules_mac_sigSentAck
scalar Scenario.node[6].nic.mac1609_4 sentPackets:count 260
attr recordingmode count
attr source org_car2x_veins_modules_mac_sigSentPacket
scalar Scenario.node[6].nic.mac1609_4 collisions:count 0
attr recordingmode count
attr source org_car2x_veins_modules_mac_sigCollision
scalar Scenario.node[6].nic.mac1609_4 channelBusy:timeavg 0.019853837645961
attr recordingmode timeavg
attr source org_car2x_veins_modules_mac_sigChannelBusy
par Scenario.node[6].nic typename "\"org.car2x.veins.modules.nic.Nic80211p\""
par Scenario.node[6].nic connectionManagerName "\"connectionManager\""
par Scenario.node[6].veinsmobility typename "\"org.car2x.veins.modules.mobility.traci.TraCIMobility\""
par Scenario.node[6].veinsmobility notAffectedByHostState true
par Scenario.node[6].veinsmobility x 0
par Scenario.node[6].veinsmobility y 0
par Scenario.node[6].veinsmobility z 1.895
par Scenario.node[6].veinsmobility xOrientation 1
par Scenario.node[6].veinsmobility yOrientation 0
par Scenario.node[6].veinsmobility zOrientation 0
par Scenario.node[6].veinsmobility hostPositionOffset 0m
attr unit m
par Scenario.node[6].veinsmobility setHostSpeed false
par Scenario.node[6].veinsmobility accidentCount 0
par Scenario.node[6].veinsmobility accidentStart 58.91s
attr unit s
par Scenario.node[6].veinsmobility accidentDuration "uniform(30s, 60s)"
attr unit s
par Scenario.node[6].veinsmobility accidentInterval "uniform(30s, 60s)"
attr unit s
scalar Scenario.node[6].veinsmobility startTime 6.1
scalar Scenario.node[6].veinsmobility totalTime 25.9
scalar Scenario.node[6].veinsmobility stopTime 32.1
scalar Scenario.node[6].veinsmobility minSpeed 0.25235429966287
scalar Scenario.node[6].veinsmobility maxSpeed 13.834176974309
scalar Scenario.node[6].veinsmobility totalDistance 278.63981353481
scalar Scenario.node[6].veinsmobility totalCO2Emission 89.806519477959
par Scenario.node[6] typename "\"org.car2x.veins.nodes.Car\""
par Scenario.node[6] applType "\"TraCIDemo11p\""
par Scenario.node[6] nicType "\"Nic80211p\""
par Scenario.node[6] veinsmobilityType "\"org.car2x.veins.modules.mobility.traci.TraCIMobility\""
par Scenario.node[7].appl typename "\"org.car2x.veins.modules.application.traci.TraCIDemo11p\""
par Scenario.node[7].appl headerLength 80bit
attr unit bit
par Scenario.node[7].appl sendBeacons true
par Scenario.node[7].appl beaconLengthBits 256bit
attr unit bit
par Scenario.node[7].appl beaconUserPriority 7
par Scenario.node[7].appl beaconInterval 0.1s
attr unit s
par Scenario.node[7].appl dataLengthBits 1024bit
attr unit bit
par Scenario.node[7].appl dataOnSch false
par Scenario.node[7].appl dataUserPriority 7
par Scenario.node[7].appl avoidBeaconSynchronization true
par Scenario.node[7].appl sendWSA false
par Scenario.node[7].appl wsaLengthBits 250bit
attr unit bit
par Scenario.node[7].appl wsaInterval 1s
attr unit s
scalar Scenario.node[7].appl generatedWSMs 0
scalar Scenario.node[7].appl receivedWSMs 0
scalar Scenario.node[7].appl generatedBSMs 253
scalar Scenario.node[7].appl receivedBSMs 4727
scalar Scenario.node[7].appl generatedWSAs 0
scalar Scenario.node[7].appl receivedWSAs 0
par Scenario.node[7].nic.phy80211p typename "\"org.car2x.veins.modules.phy.PhyLayer80211p\""
par Scenario.node[7].nic.phy80211p recordStats false
par Scenario.node[7].nic.phy80211p usePropagationDelay true
par Scenario.node[7].nic.phy80211p noiseFloor -98dBm
attr unit dBm
par Scenario.node[7].nic.phy80211p useNoiseFloor true
par Scenario.node[7].nic.phy80211p antenna "<root>...</root> at content:1"
par Scenario.node[7].nic.phy80211p antennaOffsetX 0m
attr unit m
par Scenario.node[7].nic.phy80211p antennaOffsetY 0m
attr unit m
par Scenario.node[7].nic.phy80211p antennaOffsetZ 1.895m
attr unit m
par Scenario.node[7].nic.phy80211p antennaOffsetYaw 0rad
attr unit rad
par Scenario.node[7].nic.phy80211p analogueModels "<root>...</root> at /home/vagrant/spe-homework-project/Project/simulations//config_1.xml:2"
par Scenario.node[7].nic.phy80211p decider "<root>...</root> at /home/vagrant/spe-homework-project/Project/simulations//config_1.xml:2"
par Scenario.node[7].nic.phy80211p minPowerLevel -110dBm
attr unit dBm
par Scenario.node[7].nic.phy80211p timeRXToTX 0s
attr unit s
par Scenario.node[7].nic.phy80211p timeRXToSleep 0s
attr unit s
par Scenario.node[7].nic.phy80211p timeTXToRX 0s
attr unit s
par Scenario.node[7].nic.phy80211p timeTXToSleep 0s
attr unit s
par Scenario.node[7].nic.phy80211p timeSleepToRX 0s
attr unit s
par Scenario.node[7].nic.phy80211p timeSleepToTX 0s
attr unit s
par Scenario.node[7].nic.phy80211p initialRadioState 0
par Scenario.node[7].nic.phy80211p radioMinAtt 1
par Scenario.node[7].nic.phy80211p radioMaxAtt 0
par Scenario.node[7].nic.phy80211p nbRadioChannels 1
par Scenario.node[7].nic.phy80211p initialRadioChannel 0
par Scenario.node[7].nic.phy80211p ccaThreshold -65dBm
attr unit dBm
par Scenario.node[7].nic.phy80211p collectCollisionStatistics false
par Scenario.node[7].nic.phy80211p allowTxDuringRx false
scalar Scenario.node[7].nic.phy80211p busyTime 0.019435256916995
par Scenario.node[7].nic.mac1609_4 typename "\"org.car2x.veins.modules.mac.ieee80211p.Mac1609_4\""
par Scenario.node[7].nic.mac1609_4 notAffectedByHostState false
par Scenario.node[7].nic.mac1609_4 headerLength 0bit
attr unit bit
par Scenario.node[7].nic.mac1609_4 address "\"auto\""
par Scenario.node[7].nic.mac1609_4 useServiceChannel false
par Scenario.node[7].nic.mac1609_4 serviceChannel 1
par Scenario.node[7].nic.mac1609_4 bitrate 6000000bps
attr unit bps
par Scenario.node[7].nic.mac1609_4 syncOffset 0.0003s
attr unit s
par Scenario.node[7].nic.mac1609_4 txPower 20mW
attr unit mW
par Scenario.node[7].nic.mac1609_4 queueSize 0
par Scenario.node[7].nic.mac1609_4 dot11RTSThreshold 12000bit
attr unit bit
par Scenario.node[7].nic.mac1609_4 dot11ShortRetryLimit 7
par Scenario.node[7].nic.mac1609_4 dot11LongRetryLimit 4
par Scenario.node[7].nic.mac1609_4 ackLength 112bit
attr unit bit
par Scenario.node[7].nic.mac1609_4 useAcks false
par Scenario.node[7].nic.mac1609_4 frameErrorRate 0
par Scenario.node[7].nic.mac1609_4 ackErrorRate 0
scalar Scenario.node[7].nic.mac1609_4 ReceivedUnicastPackets 0
scalar Scenario.node[7].nic.mac1609_4 ReceivedBroadcasts 4727
scalar Scenario.node[7].nic.mac1609_4 SentPackets 253
scalar Scenario.node[7].nic.mac1609_4 SentAcknowledgements 0
scalar Scenario.node[7].nic.mac1609_4 RetriesExceeded 0
scalar Scenario.node[7].nic.mac1609_4 SNIRLostPackets 0
scalar Scenario.node[7].nic.mac1609_4 RXTXLostPackets 0
scalar Scenario.node[7].nic.mac1609_4 TotalLostPackets 0
scalar Scenario.node[7].nic.mac1609_4 DroppedPacketsInMac 0
scalar Scenario.node[7].nic.mac1609_4 TooLittleTime 0
scalar Scenario.node[7].nic.mac1609_4 TimesIntoBackoff 253
scalar Scenario.node[7].nic.mac1609_4 SlotsBackoff 385
scalar Scenario.node[7].nic.mac1609_4 NumInternalContention 0
scalar Scenario.node[7].nic.mac1609_4 totalBusyTime 0.518173
scalar Scenario.node[7].nic.mac1609_4 retriesExceeded:count 0
attr recordingmode count
attr source org_car2x_veins_modules_mac_sigRetriesExceeded
scalar Scenario.node[7].nic.mac1609_4 sentAcks:count 0
attr recordingmode count
attr source org_car2x_veins_modules_mac_sigSentAck
scalar Scenario.node[7].nic.mac1609_4 sentPackets:count 253
attr recordingmode count
attr source org_car2x_veins_modules_mac_sigSentPacket
scalar Scenario.node[7].nic.mac1609_4 collisions:count 0
attr recordingmode count
attr source org_car2x_veins_modules_mac_sigCollision
scalar Scenario.node[7].nic.mac1609_4 channelBusy:timeavg 0.020485101563833
attr recordingmode timeavg
attr source org_car2x_veins_modules_mac_sigChannelBusy
par Scenario.node[7].nic typename "\"org.car2x.veins.modules.nic.Nic80211p\""
par Scenario.node[7].nic connectionManagerName "\"connectionManager\""
par Scenario.node[7].veinsmobility typename "\"org.car2x.veins.modules.mobility.traci.TraCIMobility\""
par Scenario.node[7].veinsmobility notAffectedByHostState true
par Scenario.node[7].veinsmobility x 0
par Scenario.node[7].veinsmobility y 0
par Scenario.node[7].veinsmobility z 1.895
par Scenario.node[7].veinsmobility xOrientation 1
par Scenario.node[7].veinsmobility yOrientation 0
par Scenario.node[7].veinsmobility zOrientation 0
par Scenario.node[7].veinsmobility hostPositionOffset 0m
attr unit m
par Scenario.node[7].veinsmobility setHostSpeed false
par Scenario.node[7].veinsmobility accidentCount 0
par Scenario.node[7].veinsmobility accidentStart 43.2182s
attr unit s
par Scenario.node[7].veinsmobility accidentDuration "uniform(30s, 60s)"
attr unit s
par Scenario.node[7].veinsmobility accidentInterval "uniform(30s, 60s)"
attr unit s
scalar Scenario.node[7].veinsmobility startTime 7.1
scalar Scenario.node[7].veinsmobility totalTime 25.2
scalar Scenario.node[7].veinsmobility stopTime 32.4
scalar Scenario.node[7].veinsmobility minSpeed 0.25797491522809
scalar Scenario.node[7].veinsmobility maxSpeed 14.137145299078
scalar Scenario.node[7].veinsmobility totalDistance 279.54312668874
scalar Scenario.node[7].veinsmobility totalCO2Emission 91.470246075815
par Scenario.node[7] typename "\"org.car2x.veins.nodes.Car\""
par Scenario.node[7] applType "\"TraCIDemo11p\""
par Scenario.node[7] nicType "\"Nic80211p\""
par Scenario.node[7] veinsmobilityType "\"org.car2x.veins.modules.mobility.traci.TraCIMobility\""
par Scenario.node[0].appl typename "\"org.car2x.veins.modules.application.traci.TraCIDemo11p\""
par Scenario.node[0].appl headerLength 80bit
attr unit bit
par Scenario.node[0].appl sendBeacons true
par Scenario.node[0].appl beaconLengthBits 256bit
attr unit bit
par Scenario.node[0].appl beaconUserPriority 7
par Scenario.node[0].appl beaconInterval 0.1s
attr unit s
par Scenario.node[0].appl dataLengthBits 1024bit
attr unit bit
par Scenario.node[0].appl dataOnSch false
par Scenario.node[0].appl dataUserPriority 7
par Scenario.node[0].appl avoidBeaconSynchronization true
par Scenario.node[0].appl sendWSA false
par Scenario.node[0].appl wsaLengthBits 250bit
attr unit bit
par Scenario.node[0].appl wsaInterval 1s
attr unit s
scalar Scenario.node[0].appl generatedWSMs 1
scalar Scenario.node[0].appl receivedWSMs 39
scalar Scenario.node[0].appl generatedBSMs 476
scalar Scenario.node[0].appl receivedBSMs 10284
scalar Scenario.node[0].appl generatedWSAs 0
scalar Scenario.node[0].appl receivedWSAs 0
par Scenario.node[0].nic.phy80211p typename "\"org.car2x.veins.modules.phy.PhyLayer80211p\""
par Scenario.node[0].nic.phy80211p recordStats false
par Scenario.node[0].nic.phy80211p usePropagationDelay true
par Scenario.node[0].nic.phy80211p noiseFloor -98dBm
attr unit dBm
par Scenario.node[0].nic.phy80211p useNoiseFloor true
par Scenario.node[0].nic.phy80211p antenna "<root>...</root> at content:1"
par Scenario.node[0].nic.phy80211p antennaOffsetX 0m
attr unit m
par Scenario.node[0].nic.phy80211p antennaOffsetY 0m
attr unit m
par Scenario.node[0].nic.phy80211p antennaOffsetZ 1.895m
attr unit m
par Scenario.node[0].nic.phy80211p antennaOffsetYaw 0rad
attr unit rad
par Scenario.node[0].nic.phy80211p analogueModels "<root>...</root> at /home/vagrant/spe-homework-project/Project/simulations//config_1.xml:2"
par Scenario.node[0].nic.phy80211p decider "<root>...</root> at /home/vagrant/spe-homework-project/Project/simulations//config_1.xml:2"
par Scenario.node[0].nic.phy80211p minPowerLevel -110dBm
attr unit dBm
par Scenario.node[0].nic.phy80211p timeRXToTX 0s
attr unit s
par Scenario.node[0].nic.phy80211p timeRXToSleep 0s
attr unit s
par Scenario.node[0].nic.phy80211p timeTXToRX 0s
attr unit s
par Scenario.node[0].nic.phy80211p timeTXToSleep 0s
attr unit s
par Scenario.node[0].nic.phy80211p timeSleepToRX 0s
attr unit s
par Scenario.node[0].nic.phy80211p timeSleepToTX 0s
attr unit s
par Scenario.node[0].nic.phy80211p initialRadioState 0
par Scenario.node[0].nic.phy80211p radioMinAtt 1
par Scenario.node[0].nic.phy80211p radioMaxAtt 0
par Scenario.node[0].nic.phy80211p nbRadioChannels 1
par Scenario.node[0].nic.phy80211p initialRadioChannel 0
par Scenario.node[0].nic.phy80211p ccaThreshold -65dBm
attr unit dBm
par Scenario.node[0].nic.phy80211p collectCollisionStatistics false
par Scenario.node[0].nic.phy80211p allowTxDuringRx false
scalar Scenario.node[0].nic.phy80211p busyTime 0.022770756302522
par Scenario.node[0].nic.mac1609_4 typename "\"org.car2x.veins.modules.mac.ieee80211p.Mac1609_4\""
par Scenario.node[0].nic.mac1609_4 notAffectedByHostState false
par Scenario.node[0].nic.mac1609_4 headerLength 0bit
attr unit bit
par Scenario.node[0].nic.mac1609_4 address "\"auto\""
par Scenario.node[0].nic.mac1609_4 useServiceChannel false
par Scenario.node[0].nic.mac1609_4 serviceChannel 1
par Scenario.node[0].nic.mac1609_4 bitrate 6000000bps
attr unit bps
par Scenario.node[0].nic.mac1609_4 syncOffset 0.0003s
attr unit s
par Scenario.node[0].nic.mac1609_4 txPower 20mW
attr unit mW
par Scenario.node[0].nic.mac1609_4 queueSize 0
par Scenario.node[0].nic.mac1609_4 dot11RTSThreshold 12000bit
attr unit bit
par Scenario.node[0].nic.mac1609_4 dot11ShortRetryLimit 7
par Scenario.node[0].nic.mac1609_4 dot11LongRetryLimit 4
par Scenario.node[0].nic.mac1609_4 ackLength 112bit
attr unit bit
par Scenario.node[0].nic.mac1609_4 useAcks false
par Scenario.node[0].nic.mac1609_4 frameErrorRate 0
par Scenario.node[0].nic.mac1609_4 ackErrorRate 0
scalar Scenario.node[0].nic.mac1609_4 ReceivedUnicastPackets 0
scalar Scenario.node[0].nic.mac1609_4 ReceivedBroadcasts 10323
scalar Scenario.node[0].nic.mac1609_4 SentPackets 477
scalar Scenario.node[0].nic.mac1609_4 SentAcknowledgements 0
scalar Scenario.node[0].nic.mac1609_4 RetriesExceeded 0
scalar Scenario.node[0].nic.mac1609_4 SNIRLostPackets 50
scalar Scenario.node[0].nic.mac1609_4 RXTXLostPackets 0
scalar Scenario.node[0].nic.mac1609_4 TotalLostPackets 50
scalar Scenario.node[0].nic.mac1609_4 DroppedPacketsInMac 0
scalar Scenario.node[0].nic.mac1609_4 TooLittleTime 0
scalar Scenario.node[0].nic.mac1609_4 TimesIntoBackoff 477
scalar Scenario.node[0].nic.mac1609_4 SlotsBackoff 724
scalar Scenario.node[0].nic.mac1609_4 NumInternalContention 0
scalar Scenario.node[0].nic.mac1609_4 totalBusyTime 1.131397
scalar Scenario.node[0].nic.mac1609_4 retriesExceeded:count 0
attr recordingmode count
attr source org_car2x_veins_modules_mac_sigRetriesExceeded
scalar Scenario.node[0].nic.mac1609_4 sentAcks:count 0
attr recordingmode count
attr source org_car2x_veins_modules_mac_sigSentAck
scalar Scenario.node[0].nic.mac1609_4 sentPackets:count 477
attr recordingmode count
attr source org_car2x_veins_modules_mac_sigSentPacket
scalar Scenario.node[0].nic.mac1609_4 collisions:count 0
attr recordingmode count
attr source org_car2x_veins_modules_mac_sigCollision
scalar Scenario.node[0].nic.mac1609_4 channelBusy:timeavg 0.023770993074582
attr recordingmode timeavg
attr source org_car2x_veins_modules_mac_sigChannelBusy
par Scenario.node[0].nic typename "\"org.car2x.veins.modules.nic.Nic80211p\""
par Scenario.node[0].nic connectionManagerName "\"connectionManager\""
par Scenario.node[0].veinsmobility typename "\"org.car2x.veins.modules.mobility.traci.TraCIMobility\""
par Scenario.node[0].veinsmobility notAffectedByHostState true
par Scenario.node[0].veinsmobility x 0
par Scenario.node[0].veinsmobility y 0
par Scenario.node[0].veinsmobility z 1.895
par Scenario.node[0].veinsmobility xOrientation 1
par Scenario.node[0].veinsmobility yOrientation 0
par Scenario.node[0].veinsmobility zOrientation 0
par Scenario.node[0].veinsmobility hostPositionOffset 0m
attr unit m
par Scenario.node[0].veinsmobility setHostSpeed false
par Scenario.node[0].veinsmobility accidentCount 0
par Scenario.node[0].veinsmobility accidentStart 56.2029s
attr unit s
par Scenario.node[0].veinsmobility accidentDuration "uniform(30s, 60s)"
attr unit s
par Scenario.node[0].veinsmobility accidentInterval "uniform(30s, 60s)"
attr unit s
scalar Scenario.node[0].veinsmobility startTime 0.1
scalar Scenario.node[0].veinsmobility totalTime 47.5
scalar Scenario.node[0].veinsmobility stopTime 47.7
scalar Scenario.node[0].veinsmobility minSpeed 0.25404528568941
scalar Scenario.node[0].veinsmobility maxSpeed 15.210538144778
scalar Scenario.node[0].veinsmobility totalDistance 570.70314385804
scalar Scenario.node[0].veinsmobility totalCO2Emission 172.51341935839
par Scenario.node[0] typename "\"org.car2x.veins.nodes.Car\""
par Scenario.node[0] applType "\"TraCIDemo11p\""
par Scenario.node[0] nicType "\"Nic80211p\""
par Scenario.node[0] veinsmobilityType "\"org.car2x.veins.modules.mobility.traci.TraCIMobility\""
par Scenario.node[10].appl typename "\"org.car2x.veins.modules.application.traci.TraCIDemo11p\""
par Scenario.node[10].appl headerLength 80bit
attr unit bit
par Scenario.node[10].appl sendBeacons true
par Scenario.node[10].appl beaconLengthBits 256bit
attr unit bit
par Scenario.node[10].appl beaconUserPriority 7
par Scenario.node[10].appl beaconInterval 0.1s
attr unit s
par Scenario.node[10].appl dataLengthBits 1024bit
attr unit bit
par Scenario.node[10].appl dataOnSch false
par Scenario.node[10].appl dataUserPriority 7
par Scenario.node[10].appl avoidBeaconSynchronization true
par Scenario.node[10].appl sendWSA false
par Scenario.node[10].appl wsaLengthBits 250bit
attr unit bit
par Scenario.node[10].appl wsaInterval 1s
attr unit s
scalar Scenario.node[10].appl generatedWSMs 1
scalar Scenario.node[10].appl receivedWSMs 41
scalar Scenario.node[10].appl generatedBSMs 387
scalar Scenario.node[10].appl receivedBSMs 10625
scalar Scenario.node[10].appl generatedWSAs 0
scalar Scenario.node[10].appl receivedWSAs 0
par Scenario.node[10].nic.phy80211p typename "\"org.car2x.veins.modules.phy.PhyLayer80211p\""
par Scenario.node[10].nic.phy80211p recordStats false
par Scenario.node[10].nic.phy80211p usePropagationDelay true
par Scenario.node[10].nic.phy80211p noiseFloor -98dBm
attr unit dBm
par Scenario.node[10].nic.phy80211p useNoiseFloor true
par Scenario.node[10].nic.phy80211p antenna "<root>...</root> at content:1"
par Scenario.node[10].nic.phy80211p antennaOffsetX 0m
attr unit m
par Scenario.node[10].nic.phy80211p antennaOffsetY 0m
attr unit m
par Scenario.node[10].nic.phy80211p antennaOffsetZ 1.895m
attr unit m
par Scenario.node[10].nic.phy80211p antennaOffsetYaw 0rad
attr unit rad
par Scenario.node[10].nic.phy80211p analogueModels "<root>...</root> at /home/vagrant/spe-homework-project/Project/simulations//config_1.xml:2"
par Scenario.node[10].nic.phy80211p decider "<root>...</root> at /home/vagrant/spe-homework-project/Project/simulations//config_1.xml:2"
par Scenario.node[10].nic.phy80211p minPowerLevel -110dBm
attr unit dBm
par Scenario.node[10].nic.phy80211p timeRXToTX 0s
attr unit s
par Scenario.node[10].nic.phy80211p timeRXToSleep 0s
attr unit s
par Scenario.node[10].nic.phy80211p timeTXToRX 0s
attr unit s
par Scenario.node[10].nic.phy80211p timeTXToSleep 0s
attr unit s
par Scenario.node[10].nic.phy80211p timeSleepToRX 0s
attr unit s
par Scenario.node[10].nic.phy80211p timeSleepToTX 0s
attr unit s
par Scenario.node[10].nic.phy80211p initialRadioState 0
par Scenario.node[10].nic.phy80211p radioMinAtt 1
par Scenario.node[10].nic.phy80211p radioMaxAtt 0
par Scenario.node[10].nic.phy80211p nbRadioChannels 1
par Scenario.node[10].nic.phy80211p initialRadioChannel 0
par Scenario.node[10].nic.phy80211p ccaThreshold -65dBm
attr unit dBm
par Scenario.node[10].nic.phy80211p collectCollisionStatistics false
par Scenario.node[10].nic.phy80211p allowTxDuringRx false
scalar Scenario.node[10].nic.phy80211p busyTime 0.028944496124033
par Scenario.node[10].nic.mac1609_4 typename "\"org.car2x.veins.modules.mac.ieee80211p.Mac1609_4\""
par Scenario.node[10].nic.mac1609_4 notAffectedByHostState false
par Scenario.node[10].nic.mac1609_4 headerLength 0bit
attr unit bit
par Scenario.node[10].nic.mac1609_4 address "\"auto\""
par Scenario.node[10].nic.mac1609_4 useServiceChannel false
par Scenario.node[10].nic.mac1609_4 serviceChannel 1
par Scenario.node[10].nic.mac1609_4 bitrate 6000000bps
attr unit bps
par Scenario.node[10].nic.mac1609_4 syncOffset 0.0003s
attr unit s
par Scenario.node[10].nic.mac1609_4 txPower 20mW
attr unit mW
par Scenario.node[10].nic.mac1609_4 queueSize 0
par Scenario.node[10].nic.mac1609_4 dot11RTSThreshold 12000bit
attr unit bit
par Scenario.node[10].nic.mac1609_4 dot11ShortRetryLimit 7
par Scenario.node[10].nic.mac1609_4 dot11LongRetryLimit 4
par Scenario.node[10].nic.mac1609_4 ackLength 112bit
attr unit bit
par Scenario.node[10].nic.mac1609_4 useAcks false
par Scenario.node[10].nic.mac1609_4 frameErrorRate 0
par Scenario.node[10].nic.mac1609_4 ackErrorRate 0
scalar Scenario.node[10].nic.mac1609_4 ReceivedUnicastPackets 0
scalar Scenario.node[10].nic.mac1609_4 ReceivedBroadcasts 10666
scalar Scenario.node[10].nic.mac1609_4 SentPackets 388
scalar Scenario.node[10].nic.mac1609_4 SentAcknowledgements 0
scalar Scenario.node[10].nic.mac1609_4 RetriesExceeded 0
scalar Scenario.node[10].nic.mac1609_4 SNIRLostPackets 53
scalar Scenario.node[10].nic.mac1609_4 RXTXLostPackets 0
scalar Scenario.node[10].nic.mac1609_4 TotalLostPackets 53
scalar Scenario.node[10].nic.mac1609_4 DroppedPacketsInMac 0
scalar Scenario.node[10].nic.mac1609_4 TooLittleTime 0
scalar Scenario.node[10].nic.mac1609_4 TimesIntoBackoff 389
scalar Scenario.node[10].nic.mac1609_4 SlotsBackoff 597
scalar Scenario.node[10].nic.mac1609_4 NumInternalContention 0
scalar Scenario.node[10].nic.mac1609_4 totalBusyTime 1.158084
scalar Scenario.node[10].nic.mac1609_4 retriesExceeded:count 0
attr recordingmode count
attr source org_car2x_veins_modules_mac_sigRetriesExceeded
scalar Scenario.node[10].nic.mac1609_4 sentAcks:count 0
attr recordingmode count
attr source org_car2x_veins_modules_mac_sigSentAck
scalar Scenario.node[10].nic.mac1609_4 sentPackets:count 388
attr recordingmode count
attr source org_car2x_veins_modules_mac_sigSentPacket
scalar Scenario.node[10].nic.mac1609_4 collisions:count 0
attr recordingmode count
attr source org_car2x_veins_modules_mac_sigCollision
scalar Scenario.node[10].nic.mac1609_4 channelBusy:timeavg 0.029924651162793
attr recordingmode timeavg
attr source org_car2x_veins_modules_mac_sigChannelBusy
par Scenario.node[10].nic typename "\"org.car2x.veins.modules.nic.Nic80211p\""
par Scenario.node[10].nic connectionManagerName "\"connectionManager\""
par Scenario.node[10].veinsmobility typename "\"org.car2x.veins.modules.mobility.traci.TraCIMobility\""
par Scenario.node[10].veinsmobility notAffectedByHostState true
par Scenario.node[10].veinsmobility x 0
par Scenario.node[10].veinsmobility y 0
par Scenario.node[10].veinsmobility z 1.895
par Scenario.node[10].veinsmobility xOrientation 1
par Scenario.node[10].veinsmobility yOrientation 0
par Scenario.node[10].veinsmobility zOrientation 0
par Scenario.node[10].veinsmobility hostPositionOffset 0m
attr unit m
par Scenario.node[10].veinsmobility setHostSpeed false
par Scenario.node[10].veinsmobility accidentCount 0
par Scenario.node[10].veinsmobility accidentStart 44.5971s
attr unit s
par Scenario.node[10].veinsmobility accidentDuration "uniform(30s, 60s)"
attr unit s
par Scenario.node[10].veinsmobility accidentInterval "uniform(30s, 60s)"
attr unit s
scalar Scenario.node[10].veinsmobility startTime 11.1
scalar Scenario.node[10].veinsmobility totalTime 38.6
scalar Scenario.node[10].veinsmobility stopTime 49.8
scalar Scenario.node[10].veinsmobility minSpeed 0.25052282136376
scalar Scenario.node[10].veinsmobility maxSpeed 13.965093497062
scalar Scenario.node[10].veinsmobility totalDistance 427.49114987312
scalar Scenario.node[10].veinsmobility totalCO2Emission 134.83363932288
par Scenario.node[10] typename "\"org.car2x.veins.nodes.Car\""
par Scenario.node[10] applType "\"TraCIDemo11p\""
par Scenario.node[10] nicType "\"Nic80211p\""
par Scenario.node[10] veinsmobilityType "\"org.car2x.veins.modules.mobility.traci.TraCIMobility\""
par Scenario.node[1].appl typename "\"org.car2x.veins.modules.application.traci.TraCIDemo11p\""
par Scenario.node[1].appl headerLength 80bit
attr unit bit
par Scenario.node[1].appl sendBeacons true
par Scenario.node[1].appl beaconLengthBits 256bit
attr unit bit
par Scenario.node[1].appl beaconUserPriority 7
par Scenario.node[1].appl beaconInterval 0.1s
attr unit s
par Scenario.node[1].appl dataLengthBits 1024bit
attr unit bit
par Scenario.node[1].appl dataOnSch false
par Scenario.node[1].appl dataUserPriority 7
par Scenario.node[1].appl avoidBeaconSynchronization true
par Scenario.node[1].appl sendWSA false
par Scenario.node[1].appl wsaLengthBits 250bit
attr unit bit
par Scenario.node[1].appl wsaInterval 1s
attr unit s
scalar Scenario.node[1].appl generatedWSMs 1
scalar Scenario.node[1].appl receivedWSMs 41
scalar Scenario.node[1].appl generatedBSMs 495
scalar Scenario.node[1].appl receivedBSMs 11490
scalar Scenario.node[1].appl generatedWSAs 0
scalar Scenario.node[1].appl receivedWSAs 0
par Scenario.node[1].nic.phy80211p typename "\"org.car2x.veins.modules.phy.PhyLayer80211p\""
par Scenario.node[1].nic.phy80211p recordStats false
par Scenario.node[1].nic.phy80211p usePropagationDelay true
par Scenario.node[1].nic.phy80211p noiseFloor -98dBm
attr unit dBm
par Scenario.node[1].nic.phy80211p useNoiseFloor true
par Scenario.node[1].nic.phy80211p antenna "<root>...</root> at content:1"
par Scenario.node[1].nic.phy80211p antennaOffsetX 0m
attr unit m
par Scenario.node[1].nic.phy80211p antennaOffsetY 0m
attr unit m
par Scenario.node[1].nic.phy80211p antennaOffsetZ 1.895m
attr unit m
par Scenario.node[1].nic.phy80211p antennaOffsetYaw 0rad
attr unit rad
par Scenario.node[1].nic.phy80211p analogueModels "<root>...</root> at /home/vagrant/spe-homework-project/Project/simulations//config_1.xml:2"
par Scenario.node[1].nic.phy80211p decider "<root>...</root> at /home/vagrant/spe-homework-project/Project/simulations//config_1.xml:2"
par Scenario.node[1].nic.phy80211p minPowerLevel -110dBm
attr unit dBm
par Scenario.node[1].nic.phy80211p timeRXToTX 0s
attr unit s
par Scenario.node[1].nic.phy80211p timeRXToSleep 0s
attr unit s
par Scenario.node[1].nic.phy80211p timeTXToRX 0s
attr unit s
par Scenario.node[1].nic.phy80211p timeTXToSleep 0s
attr unit s
par Scenario.node[1].nic.phy80211p timeSleepToRX 0s
attr unit s
par Scenario.node[1].nic.phy80211p timeSleepToTX 0s
attr unit s
par Scenario.node[1].nic.phy80211p initialRadioState 0
par Scenario.node[1].nic.phy80211p radioMinAtt 1
par Scenario.node[1].nic.phy80211p radioMaxAtt 0
par Scenario.node[1].nic.phy80211p nbRadioChannels 1
par Scenario.node[1].nic.phy80211p initialRadioChannel 0
par Scenario.node[1].nic.phy80211p ccaThreshold -65dBm
attr unit dBm
par Scenario.node[1].nic.phy80211p collectCollisionStatistics false
par Scenario.node[1].nic.phy80211p allowTxDuringRx false
scalar Scenario.node[1].nic.phy80211p busyTime 0.024453010101013
par Scenario.node[1].nic.mac1609_4 typename "\"org.car2x.veins.modules.mac.ieee80211p.Mac1609_4\""
par Scenario.node[1].nic.mac1609_4 notAffectedByHostState false
par Scenario.node[1].nic.mac1609_4 headerLength 0bit
attr unit bit
par Scenario.node[1].nic.mac1609_4 address "\"auto\""
par Scenario.node[1].nic.mac1609_4 useServiceChannel false
par Scenario.node[1].nic.mac1609_4 serviceChannel 1
par Scenario.node[1].nic.mac1609_4 bitrate 6000000bps
attr unit bps
par Scenario.node[1].nic.mac1609_4 syncOffset 0.0003s
attr unit s
par Scenario.node[1].nic.mac1609_4 txPower 20mW
attr unit mW
par Scenario.node[1].nic.mac1609_4 queueSize 0
par Scenario.node[1].nic.mac1609_4 dot11RTSThreshold 12000bit
attr unit bit
par Scenario.node[1].nic.mac1609_4 dot11ShortRetryLimit 7
par Scenario.node[1].nic.mac1609_4 dot11LongRetryLimit 4
par Scenario.node[1].nic.mac1609_4 ackLength 112bit
attr unit bit
par Scenario.node[1].nic.mac1609_4 useAcks false
par Scenario.node[1].nic.mac1609_4 frameErrorRate 0
par Scenario.node[1].nic.mac1609_4 ackErrorRate 0
scalar Scenario.node[1].nic.mac1609_4 ReceivedUnicastPackets 0
scalar Scenario.node[1].nic.mac1609_4 ReceivedBroadcasts 11531
scalar Scenario.node[1].nic.mac1609_4 SentPackets 496
scalar Scenario.node[1].nic.mac1609_4 SentAcknowledgements 0
scalar Scenario.node[1].nic.mac1609_4 RetriesExceeded 0
scalar Scenario.node[1].nic.mac1609_4 SNIRLostPackets 55
scalar Scenario.node[1].nic.mac1609_4 RXTXLostPackets 0
scalar Scenario.node[1].nic.mac1609_4 TotalLostPackets 55
scalar Scenario.node[1].nic.mac1609_4 DroppedPacketsInMac 0
scalar Scenario.node[1].nic.mac1609_4 TooLittleTime 0
scalar Scenario.node[1].nic.mac1609_4 TimesIntoBackoff 496
scalar Scenario.node[1].nic.mac1609_4 SlotsBackoff 761
scalar Scenario.node[1].nic.mac1609_4 NumInternalContention 0
scalar Scenario.node[1].nic.mac1609_4 totalBusyTime 1.259488
scalar Scenario.node[1].nic.mac1609_4 retriesExceeded:count 0
attr recordingmode count
attr source org_car2x_veins_modules_mac_sigRetriesExceeded
scalar Scenario.node[1].nic.mac1609_4 sentAcks:count 0
attr recordingmode count
attr source org_car2x_veins_modules_mac_sigSentAck
scalar Scenario.node[1].nic.mac1609_4 sentPackets:count 496
attr recordingmode count
attr source org_car2x_veins_modules_mac_sigSentPacket
scalar Scenario.node[1].nic.mac1609_4 collisions:count 0
attr recordingmode count
attr source org_car2x_veins_modules_mac_sigCollision
scalar Scenario.node[1].nic.mac1609_4 channelBusy:timeavg 0.025446287824711
attr recordingmode timeavg
attr source org_car2x_veins_modules_mac_sigChannelBusy
par Scenario.node[1].nic typename "\"org.car2x.veins.modules.nic.Nic80211p\""
par Scenario.node[1].nic connectionManagerName "\"connectionManager\""
par Scenario.node[1].veinsmobility typename "\"org.car2x.veins.modules.mobility.traci.TraCIMobility\""
par Scenario.node[1].veinsmobility notAffectedByHostState true
par Scenario.node[1].veinsmobility x 0
par Scenario.node[1].veinsmobility y 0
par Scenario.node[1].veinsmobility z 1.895
par Scenario.node[1].veinsmobility xOrientation 1
par Scenario.node[1].veinsmobility yOrientation 0
par Scenario.node[1].veinsmobility zOrientation 0
par Scenario.node[1].veinsmobility hostPositionOffset 0m
attr unit m
par Scenario.node[1].veinsmobility setHostSpeed false
par Scenario.node[1].veinsmobility accidentCount 0
par Scenario.node[1].veinsmobility accidentStart 42.0578s
attr unit s
par Scenario.node[1].veinsmobility accidentDuration "uniform(30s, 60s)"
attr unit s
par Scenario.node[1].veinsmobility accidentInterval "uniform(30s, 60s)"
attr unit s
scalar Scenario.node[1].veinsmobility startTime 1.1
scalar Scenario.node[1].veinsmobility totalTime 49.4
scalar Scenario.node[1].veinsmobility stopTime 50.6
scalar Scenario.node[1].veinsmobility minSpeed 0.013689832727732
scalar Scenario.node[1].veinsmobility maxSpeed 14.070504577317
scalar Scenario.node[1].veinsmobility totalDistance 425.7959930371
scalar Scenario.node[1].veinsmobility totalCO2Emission 147.88032789006
par Scenario.node[1] typename "\"org.car2x.veins.nodes.Car\""
par Scenario.node[1] applType "\"TraCIDemo11p\""
par Scenario.node[1] nicType "\"Nic80211p\""
par Scenario.node[1] veinsmobilityType "\"org.car2x.veins.modules.mobility.traci.TraCIMobility\""
par Scenario.node[2].appl typename "\"org.car2x.veins.modules.application.traci.TraCIDemo11p\""
par Scenario.node[2].appl headerLength 80bit
attr unit bit
par Scenario.node[2].appl sendBeacons true
par Scenario.node[2].appl beaconLengthBits 256bit
attr unit bit
par Scenario.node[2].appl beaconUserPriority 7
par Scenario.node[2].appl beaconInterval 0.1s
attr unit s
par Scenario.node[2].appl dataLengthBits 1024bit
attr unit bit
par Scenario.node[2].appl dataOnSch false
par Scenario.node[2].appl dataUserPriority 7
par Scenario.node[2].appl avoidBeaconSynchronization true
par Scenario.node[2].appl sendWSA false
par Scenario.node[2].appl wsaLengthBits 250bit
attr unit bit
par Scenario.node[2].appl wsaInterval 1s
attr unit s
scalar Scenario.node[2].appl generatedWSMs 1
scalar Scenario.node[2].appl receivedWSMs 50
scalar Scenario.node[2].appl generatedBSMs 564
scalar Scenario.node[2].appl receivedBSMs 15084
scalar Scenario.node[2].appl generatedWSAs 0
scalar Scenario.node[2].appl receivedWSAs 0
par Scenario.node[2].nic.phy80211p typename "\"org.car2x.veins.modules.phy.PhyLayer80211p\""
par Scenario.node[2].nic.phy80211p recordStats false
par Scenario.node[2].nic.phy80211p usePropagationDelay true
par Scenario.node[2].nic.phy80211p noiseFloor -98dBm
attr unit dBm
par Scenario.node[2].nic.phy80211p useNoiseFloor true
par Scenario.node[2].nic.phy80211p antenna "<root>...</root> at content:1"
par Scenario.node[2].nic.phy80211p antennaOffsetX 0m
attr unit m
par Scenario.node[2].nic.phy80211p antennaOffsetY 0m
attr unit m
par Scenario.node[2].nic.phy80211p antennaOffsetZ 1.895m
attr unit m
par Scenario.node[2].nic.phy80211p antennaOffsetYaw 0rad
attr unit rad
par Scenario.node[2].nic.phy80211p analogueModels "<root>...</root> at /home/vagrant/spe-homework-project/Project/simulations//config_1.xml:2"
par Scenario.node[2].nic.phy80211p decider "<root>...</root> at /home/vagrant/spe-homework-project/Project/simulations//config_1.xml:2"
par Scenario.node[2].nic.phy80211p minPowerLevel -110dBm
attr unit dBm
par Scenario.node[2].nic.phy80211p timeRXToTX 0s
attr unit s
par Scenario.node[2].nic.phy80211p timeRXToSleep 0s
attr unit s
par Scenario.node[2].nic.phy80211p timeTXToRX 0s
attr unit s
par Scenario.node[2].nic.phy80211p timeTXToSleep 0s
attr unit s
par Scenario.node[2].nic.phy80211p timeSleepToRX 0s
attr unit s
par Scenario.node[2].nic.phy80211p timeSleepToTX 0s
attr unit s
par Scenario.node[2].nic.phy80211p initialRadioState 0
par Scenario.node[2].nic.phy80211p radioMinAtt 1
par Scenario.node[2].nic.phy80211p radioMaxAtt 0
par Scenario.node[2].nic.phy80211p nbRadioChannels 1
par Scenario.node[2].nic.phy80211p initialRadioChannel 0
par Scenario.node[2].nic.phy80211p ccaThreshold -65dBm
attr unit dBm
par Scenario.node[2].nic.phy80211p collectCollisionStatistics false
par Scenario.node[2].nic.phy80211p allowTxDuringRx false
scalar Scenario.node[2].nic.phy80211p busyTime 0.028147801418449
par Scenario.node[2].nic.mac1609_4 typename "\"org.car2x.veins.modules.mac.ieee80211p.Mac1609_4\""
par Scenario.node[2].nic.mac1609_4 notAffectedByHostState false
par Scenario.node[2].nic.mac1609_4 headerLength 0bit
attr unit bit
par Scenario.node[2].nic.mac1609_4 address "\"auto\""
par Scenario.node[2].nic.mac1609_4 useServiceChannel false
par Scenario.node[2].nic.mac1609_4 serviceChannel 1
par Scenario.node[2].nic.mac1609_4 bitrate 6000000bps
attr unit bps
par Scenario.node[2].nic.mac1609_4 syncOffset 0.0003s
attr unit s
par Scenario.node[2].nic.mac1609_4 txPower 20mW
attr unit mW
par Scenario.node[2].nic.mac1609_4 queueSize 0
par Scenario.node[2].nic.mac1609_4 dot11RTSThreshold 12000bit
attr unit bit
par Scenario.node[2].nic.mac1609_4 dot11ShortRetryLimit 7
par Scenario.node[2].nic.mac1609_4 dot11LongRetryLimit 4
par Scenario.node[2].nic.mac1609_4 ackLength 112bit
attr unit bit
par Scenario.node[2].nic.mac1609_4 useAcks false
par Scenario.node[2].nic.mac1609_4 frameErrorRate 0
par Scenario.node[2].nic.mac1609_4 ackErrorRate 0
scalar Scenario.node[2].nic.mac1609_4 ReceivedUnicastPackets 0
scalar Scenario.node[2].nic.mac1609_4 ReceivedBroadcasts 15134
scalar Scenario.node[2].nic.mac1609_4 SentPackets 565
scalar Scenario.node[2].nic.mac1609_4 SentAcknowledgements 0
scalar Scenario.node[2].nic.mac1609_4 RetriesExceeded 0
scalar Scenario.node[2].nic.mac1609_4 SNIRLostPackets 67
scalar Scenario.node[2].nic.mac1609_4 RXTXLostPackets 0
scalar Scenario.node[2].nic.mac1609_4 TotalLostPackets 67
scalar Scenario.node[2].nic.mac1609_4 DroppedPacketsInMac 0
scalar Scenario.node[2].nic.mac1609_4 TooLittleTime 0
scalar Scenario.node[2].nic.mac1609_4 TimesIntoBackoff 565
scalar Scenario.node[2].nic.mac1609_4 SlotsBackoff 862
scalar Scenario.node[2].nic.mac1609_4 NumInternalContention 0
scalar Scenario.node[2].nic.mac1609_4 totalBusyTime 1.642077
scalar Scenario.node[2].nic.mac1609_4 retriesExceeded:count 0
attr recordingmode count
attr source org_car2x_veins_modules_mac_sigRetriesExceeded
scalar Scenario.node[2].nic.mac1609_4 sentAcks:count 0
attr recordingmode count
attr source org_car2x_veins_modules_mac_sigSentAck
scalar Scenario.node[2].nic.mac1609_4 sentPackets:count 565
attr recordingmode count
attr source org_car2x_veins_modules_mac_sigSentPacket
scalar Scenario.node[2].nic.mac1609_4 collisions:count 0
attr recordingmode count
attr source org_car2x_veins_modules_mac_sigCollision
scalar Scenario.node[2].nic.mac1609_4 channelBusy:timeavg 0.029116640998521
attr recordingmode timeavg
attr source org_car2x_veins_modules_mac_sigChannelBusy
par Scenario.node[2].nic typename "\"org.car2x.veins.modules.nic.Nic80211p\""
par Scenario.node[2].nic connectionManagerName "\"connectionManager\""
par Scenario.node[2].veinsmobility typename "\"org.car2x.veins.modules.mobility.traci.TraCIMobility\""
par Scenario.node[2].veinsmobility notAffectedByHostState true
par Scenario.node[2].veinsmobility x 0
par Scenario.node[2].veinsmobility y 0
par Scenario.node[2].veinsmobility z 1.895
par Scenario.node[2].veinsmobility xOrientation 1
par Scenario.node[2].veinsmobility yOrientation 0
par Scenario.node[2].veinsmobility zOrientation 0
par Scenario.node[2].veinsmobility hostPositionOffset 0m
attr unit m
par Scenario.node[2].veinsmobility setHostSpeed false
par Scenario.node[2].veinsmobility accidentCount 0
par Scenario.node[2].veinsmobility accidentStart 35.6452s
attr unit s
par Scenario.node[2].veinsmobility accidentDuration "uniform(30s, 60s)"
attr unit s
par Scenario.node[2].veinsmobility accidentInterval "uniform(30s, 60s)"
attr unit s
scalar Scenario.node[2].veinsmobility startTime 2.1
scalar Scenario.node[2].veinsmobility totalTime 56.3
scalar Scenario.node[2].veinsmobility stopTime 58.5
scalar Scenario.node[2].veinsmobility minSpeed 0.24772154413094
scalar Scenario.node[2].veinsmobility maxSpeed 11.847701494351
scalar Scenario.node[2].veinsmobility totalDistance 576.56905683653
scalar Scenario.node[2].veinsmobility totalCO2Emission 147.82299426441
par Scenario.node[2] typename "\"org.car2x.veins.nodes.Car\""
par Scenario.node[2] applType "\"TraCIDemo11p\""
par Scenario.node[2] nicType "\"Nic80211p\""
par Scenario.node[2] veinsmobilityType "\"org.car2x.veins.modules.mobility.traci.TraCIMobility\""
par Scenario.node[16].appl typename "\"org.car2x.veins.modules.application.traci.TraCIDemo11p\""
par Scenario.node[16].appl headerLength 80bit
attr unit bit
par Scenario.node[16].appl sendBeacons true
par Scenario.node[16].appl beaconLengthBits 256bit
attr unit bit
par Scenario.node[16].appl beaconUserPriority 7
par Scenario.node[16].appl beaconInterval 0.1s
attr unit s
par Scenario.node[16].appl dataLengthBits 1024bit
attr unit bit
par Scenario.node[16].appl dataOnSch false
par Scenario.node[16].appl dataUserPriority 7
par Scenario.node[16].appl avoidBeaconSynchronization true
par Scenario.node[16].appl sendWSA false
par Scenario.node[16].appl wsaLengthBits 250bit
attr unit bit
par Scenario.node[16].appl wsaInterval 1s
attr unit s
scalar Scenario.node[16].appl generatedWSMs 1
scalar Scenario.node[16].appl receivedWSMs 54
scalar Scenario.node[16].appl generatedBSMs 471
scalar Scenario.node[16].appl receivedBSMs 16334
scalar Scenario.node[16].appl generatedWSAs 0
scalar Scenario.node[16].appl receivedWSAs 0
par Scenario.node[16].nic.phy80211p typename "\"org.car2x.veins.modules.phy.PhyLayer80211p\""
par Scenario.node[16].nic.phy80211p recordStats false
par Scenario.node[16].nic.phy80211p usePropagationDelay true
par Scenario.node[16].nic.phy80211p noiseFloor -98dBm
attr unit dBm
par Scenario.node[16].nic.phy80211p useNoiseFloor true
par Scenario.node[16].nic.phy80211p antenna "<root>...</root> at content:1"
par Scenario.node[16].nic.phy80211p antennaOffsetX 0m
attr unit m
par Scenario.node[16].nic.phy80211p antennaOffsetY 0m
attr unit m
par Scenario.node[16].nic.phy80211p antennaOffsetZ 1.895m
attr unit m
par Scenario.node[16].nic.phy80211p antennaOffsetYaw 0rad
attr unit rad
par Scenario.node[16].nic.phy80211p analogueModels "<root>...</root> at /home/vagrant/spe-homework-project/Project/simulations//config_1.xml:2"
par Scenario.node[16].nic.phy80211p decider "<root>...</root> at /home/vagrant/spe-homework-project/Project/simulations//config_1.xml:2"
par Scenario.node[16].nic.phy80211p minPowerLevel -110dBm
attr unit dBm
par Scenario.node[16].nic.phy80211p timeRXToTX 0s
attr unit s
par Scenario.node[16].nic.phy80211p timeRXToSleep 0s
attr unit s
par Scenario.node[16].nic.phy80211p timeTXToRX 0s
attr unit s
par Scenario.node[16].nic.phy80211p timeTXToSleep 0s
attr unit s
par Scenario.node[16].nic.phy80211p timeSleepToRX 0s
attr unit s
par Scenario.node[16].nic.phy80211p timeSleepToTX 0s
attr unit s
par Scenario.node[16].nic.phy80211p initialRadioState 0
par Scenario.node[16].nic.phy80211p radioMinAtt 1
par Scenario.node[16].nic.phy80211p radioMaxAtt 0
par Scenario.node[16].nic.phy80211p nbRadioChannels 1
par Scenario.node[16].nic.phy80211p initialRadioChannel 0
par Scenario.node[16].nic.phy80211p ccaThreshold -65dBm
attr unit dBm
par Scenario.node[16].nic.phy80211p collectCollisionStatistics false
par Scenario.node[16].nic.phy80211p allowTxDuringRx false
scalar Scenario.node[16].nic.phy80211p busyTime 0.03654505307857
par Scenario.node[16].nic.mac1609_4 typename "\"org.car2x.veins.modules.mac.ieee80211p.Mac1609_4\""
par Scenario.node[16].nic.mac1609_4 notAffectedByHostState false
par Scenario.node[16].nic.mac1609_4 headerLength 0bit
attr unit bit
par Scenario.node[16].nic.mac1609_4 address "\"auto\""
par Scenario.node[16].nic.mac1609_4 useServiceChannel false
par Scenario.node[16].nic.mac1609_4 serviceChannel 1
par Scenario.node[16].nic.mac1609_4 bitrate 6000000bps
attr unit bps
par Scenario.node[16].nic.mac1609_4 syncOffset 0.0003s
attr unit s
par Scenario.node[16].nic.mac1609_4 txPower 20mW
attr unit mW
par Scenario.node[16].nic.mac1609_4 queueSize 0
par Scenario.node[16].nic.mac1609_4 dot11RTSThreshold 12000bit
attr unit bit
par Scenario.node[16].nic.mac1609_4 dot11ShortRetryLimit 7
par Scenario.node[16].nic.mac1609_4 dot11LongRetryLimit 4
par Scenario.node[16].nic.mac1609_4 ackLength 112bit
attr unit bit
par Scenario.node[16].nic.mac1609_4 useAcks false
par Scenario.node[16].nic.mac1609_4 frameErrorRate 0
par Scenario.node[16].nic.mac1609_4 ackErrorRate 0
scalar Scenario.node[16].nic.mac1609_4 ReceivedUnicastPackets 0
scalar Scenario.node[16].nic.mac1609_4 ReceivedBroadcasts 16388
scalar Scenario.node[16].nic.mac1609_4 SentPackets 472
scalar Scenario.node[16].nic.mac1609_4 SentAcknowledgements 0
scalar Scenario.node[16].nic.mac1609_4 RetriesExceeded 0
scalar Scenario.node[16].nic.mac1609_4 SNIRLostPackets 95
scalar Scenario.node[16].nic.mac1609_4 RXTXLostPackets 0
scalar Scenario.node[16].nic.mac1609_4 TotalLostPackets 95
scalar Scenario.node[16].nic.mac1609_4 DroppedPacketsInMac 0
scalar Scenario.node[16].nic.mac1609_4 TooLittleTime 0
scalar Scenario.node[16].nic.mac1609_4 TimesIntoBackoff 473
scalar Scenario.node[16].nic.mac1609_4 SlotsBackoff 707
scalar Scenario.node[16].nic.mac1609_4 NumInternalContention 0
scalar Scenario.node[16].nic.mac1609_4 totalBusyTime 1.764488
scalar Scenario.node[16].nic.mac1609_4 retriesExceeded:count 0
attr recordingmode count
attr source org_car2x_veins_modules_mac_sigRetriesExceeded
scalar Scenario.node[16].nic.mac1609_4 sentAcks:count 0
attr recordingmode count
attr source org_car2x_veins_modules_mac_sigSentAck
scalar Scenario.node[16].nic.mac1609_4 sentPackets:count 472
attr recordingmode count
attr source org_car2x_veins_modules_mac_sigSentPacket
scalar Scenario.node[16].nic.mac1609_4 collisions:count 0
attr recordingmode count
attr source org_car2x_veins_modules_mac_sigCollision
scalar Scenario.node[16].nic.mac1609_4 channelBusy:timeavg 0.037462590233561
attr recordingmode timeavg
attr source org_car2x_veins_modules_mac_sigChannelBusy
par Scenario.node[16].nic typename "\"org.car2x.veins.modules.nic.Nic80211p\""
par Scenario.node[16].nic connectionManagerName "\"connectionManager\""
par Scenario.node[16].veinsmobility typename "\"org.car2x.veins.modules.mobility.traci.TraCIMobility\""
par Scenario.node[16].veinsmobility notAffectedByHostState true
par Scenario.node[16].veinsmobility x 0
par Scenario.node[16].veinsmobility y 0
par Scenario.node[16].veinsmobility z 1.895
par Scenario.node[16].veinsmobility xOrientation 1
par Scenario.node[16].veinsmobility yOrientation 0
par Scenario.node[16].veinsmobility zOrientation 0
par Scenario.node[16].veinsmobility hostPositionOffset 0m
attr unit m
par Scenario.node[16].veinsmobility setHostSpeed false
par Scenario.node[16].veinsmobility accidentCount 0
par Scenario.node[16].veinsmobility accidentStart 39.0068s
attr unit s
par Scenario.node[16].veinsmobility accidentDuration "uniform(30s, 60s)"
attr unit s
par Scenario.node[16].veinsmobility accidentInterval "uniform(30s, 60s)"
attr unit s
scalar Scenario.node[16].veinsmobility startTime 16.1
scalar Scenario.node[16].veinsmobility totalTime 47
scalar Scenario.node[16].veinsmobility stopTime 63.2
scalar Scenario.node[16].veinsmobility minSpeed 0.24883443946135
scalar Scenario.node[16].veinsmobility maxSpeed 13.401725105954
scalar Scenario.node[16].veinsmobility totalDistance 420.85091785872
scalar Scenario.node[16].veinsmobility totalCO2Emission 143.57382253433
par Scenario.node[16] typename "\"org.car2x.veins.nodes.Car\""
par Scenario.node[16] applType "\"TraCIDemo11p\""
par Scenario.node[16] nicType "\"Nic80211p\""
par Scenario.node[16] veinsmobilityType "\"org.car2x.veins.modules.mobility.traci.TraCIMobility\""
par Scenario.node[24].appl typename "\"org.car2x.veins.modules.application.traci.TraCIDemo11p\""
par Scenario.node[24].appl headerLength 80bit
attr unit bit
par Scenario.node[24].appl sendBeacons true
par Scenario.node[24].appl beaconLengthBits 256bit
attr unit bit
par Scenario.node[24].appl beaconUserPriority 7
par Scenario.node[24].appl beaconInterval 0.1s
attr unit s
par Scenario.node[24].appl dataLengthBits 1024bit
attr unit bit
par Scenario.node[24].appl dataOnSch false
par Scenario.node[24].appl dataUserPriority 7
par Scenario.node[24].appl avoidBeaconSynchronization true
par Scenario.node[24].appl sendWSA false
par Scenario.node[24].appl wsaLengthBits 250bit
attr unit bit
par Scenario.node[24].appl wsaInterval 1s
attr unit s
scalar Scenario.node[24].appl generatedWSMs 1
scalar Scenario.node[24].appl receivedWSMs 56
scalar Scenario.node[24].appl generatedBSMs 401
scalar Scenario.node[24].appl receivedBSMs 15321
scalar Scenario.node[24].appl generatedWSAs 0
scalar Scenario.node[24].appl receivedWSAs 0
par Scenario.node[24].nic.phy80211p typename "\"org.car2x.veins.modules.phy.PhyLayer80211p\""
par Scenario.node[24].nic.phy80211p recordStats false
par Scenario.node[24].nic.phy80211p usePropagationDelay true
par Scenario.node[24].nic.phy80211p noiseFloor -98dBm
attr unit dBm
par Scenario.node[24].nic.phy80211p useNoiseFloor true
par Scenario.node[24].nic.phy80211p antenna "<root>...</root> at content:1"
par Scenario.node[24].nic.phy80211p antennaOffsetX 0m
attr unit m
par Scenario.node[24].nic.phy80211p antennaOffsetY 0m
attr unit m
par Scenario.node[24].nic.phy80211p antennaOffsetZ 1.895m
attr unit m
par Scenario.node[24].nic.phy80211p antennaOffsetYaw 0rad
attr unit rad
par Scenario.node[24].nic.phy80211p analogueModels "<root>...</root> at /home/vagrant/spe-homework-project/Project/simulations//config_1.xml:2"
par Scenario.node[24].nic.phy80211p decider "<root>...</root> at /home/vagrant/spe-homework-project/Project/simulations//config_1.xml:2"
par Scenario.node[24].nic.phy80211p minPowerLevel -110dBm
attr unit dBm
par Scenario.node[24].nic.phy80211p timeRXToTX 0s
attr unit s
par Scenario.node[24].nic.phy80211p timeRXToSleep 0s
attr unit s
par Scenario.node[24].nic.phy80211p timeTXToRX 0s
attr unit s
par Scenario.node[24].nic.phy80211p timeTXToSleep 0s
attr unit s
par Scenario.node[24].nic.phy80211p timeSleepToRX 0s
attr unit s
par Scenario.node[24].nic.phy80211p timeSleepToTX 0s
attr unit s
par Scenario.node[24].nic.phy80211p initialRadioState 0
par Scenario.node[24].nic.phy80211p radioMinAtt 1
par Scenario.node[24].nic.phy80211p radioMaxAtt 0
par Scenario.node[24].nic.phy80211p nbRadioChannels 1
par Scenario.node[24].nic.phy80211p initialRadioChannel 0
par Scenario.node[24].nic.phy80211p ccaThreshold -65dBm
attr unit dBm
par Scenario.node[24].nic.phy80211p collectCollisionStatistics false
par Scenario.node[24].nic.phy80211p allowTxDuringRx false
scalar Scenario.node[24].nic.phy80211p busyTime 0.040293266832932
par Scenario.node[24].nic.mac1609_4 typename "\"org.car2x.veins.modules.mac.ieee80211p.Mac1609_4\""
par Scenario.node[24].nic.mac1609_4 notAffectedByHostState false
par Scenario.node[24].nic.mac1609_4 headerLength 0bit
attr unit bit
par Scenario.node[24].nic.mac1609_4 address "\"auto\""
par Scenario.node[24].nic.mac1609_4 useServiceChannel false
par Scenario.node[24].nic.mac1609_4 serviceChannel 1
par Scenario.node[24].nic.mac1609_4 bitrate 6000000bps
attr unit bps
par Scenario.node[24].nic.mac1609_4 syncOffset 0.0003s
attr unit s
par Scenario.node[24].nic.mac1609_4 txPower 20mW
attr unit mW
par Scenario.node[24].nic.mac1609_4 queueSize 0
par Scenario.node[24].nic.mac1609_4 dot11RTSThreshold 12000bit
attr unit bit
par Scenario.node[24].nic.mac1609_4 dot11ShortRetryLimit 7
par Scenario.node[24].nic.mac1609_4 dot11LongRetryLimit 4
par Scenario.node[24].nic.mac1609_4 ackLength 112bit
attr unit bit
par Scenario.node[24].nic.mac1609_4 useAcks false
par Scenario.node[24].nic.mac1609_4 frameErrorRate 0
par Scenario.node[24].nic.mac1609_4 ackErrorRate 0
scalar Scenario.node[24].nic.mac1609_4 ReceivedUnicastPackets 0
scalar Scenario.node[24].nic.mac1609_4 ReceivedBroadcasts 15377
scalar Scenario.node[24].nic.mac1609_4 SentPackets 401
scalar Scenario.node[24].nic.mac1609_4 SentAcknowledgements 0
scalar Scenario.node[24].nic.mac1609_4 RetriesExceeded 0
scalar Scenario.node[24].nic.mac1609_4 SNIRLostPackets 89
scalar Scenario.node[24].nic.mac1609_4 RXTXLostPackets 0
scalar Scenario.node[24].nic.mac1609_4 TotalLostPackets 89
scalar Scenario.node[24].nic.mac1609_4 DroppedPacketsInMac 0
scalar Scenario.node[24].nic.mac1609_4 TooLittleTime 0
scalar Scenario.node[24].nic.mac1609_4 TimesIntoBackoff 792
scalar Scenario.node[24].nic.mac1609_4 SlotsBackoff 1182
scalar Scenario.node[24].nic.mac1609_4 NumInternalContention 0
scalar Scenario.node[24].nic.mac1609_4 totalBusyTime 1.651337050755
scalar Scenario.node[24].nic.mac1609_4 retriesExceeded:count 0
attr recordingmode count
attr source org_car2x_veins_modules_mac_sigRetriesExceeded
scalar Scenario.node[24].nic.mac1609_4 sentAcks:count 0
attr recordingmode count
attr source org_car2x_veins_modules_mac_sigSentAck
scalar Scenario.node[24].nic.mac1609_4 sentPackets:count 401
attr recordingmode count
attr source org_car2x_veins_modules_mac_sigSentPacket
scalar Scenario.node[24].nic.mac1609_4 collisions:count 0
attr recordingmode count
attr source org_car2x_veins_modules_mac_sigCollision
scalar Scenario.node[24].nic.mac1609_4 channelBusy:timeavg 0.041180475081187
attr recordingmode timeavg
attr source org_car2x_veins_modules_mac_sigChannelBusy
par Scenario.node[24].nic typename "\"org.car2x.veins.modules.nic.Nic80211p\""
par Scenario.node[24].nic connectionManagerName "\"connectionManager\""
par Scenario.node[24].veinsmobility typename "\"org.car2x.veins.modules.mobility.traci.TraCIMobility\""
par Scenario.node[24].veinsmobility notAffectedByHostState true
par Scenario.node[24].veinsmobility x 0
par Scenario.node[24].veinsmobility y 0
par Scenario.node[24].veinsmobility z 1.895
par Scenario.node[24].veinsmobility xOrientation 1
par Scenario.node[24].veinsmobility yOrientation 0
par Scenario.node[24].veinsmobility zOrientation 0
par Scenario.node[24].veinsmobility hostPositionOffset 0m
attr unit m
par Scenario.node[24].veinsmobility setHostSpeed false
par Scenario.node[24].veinsmobility accidentCount 0
par Scenario.node[24].veinsmobility accidentStart 59.6667s
attr unit s
par Scenario.node[24].veinsmobility accidentDuration "uniform(30s, 60s)"
attr unit s
par Scenario.node[24].veinsmobility accidentInterval "uniform(30s, 60s)"
attr unit s
scalar Scenario.node[24].veinsmobility startTime 24.1
scalar Scenario.node[24].veinsmobility totalTime 40
scalar Scenario.node[24].veinsmobility stopTime 64.2
scalar Scenario.node[24].veinsmobility minSpeed 0.25015039658616
scalar Scenario.node[24].veinsmobility maxSpeed 12.69071126022
scalar Scenario.node[24].veinsmobility totalDistance 420.04077537594
scalar Scenario.node[24].veinsmobility totalCO2Emission 113.05037859413
par Scenario.node[24] typename "\"org.car2x.veins.nodes.Car\""
par Scenario.node[24] applType "\"TraCIDemo11p\""
par Scenario.node[24] nicType "\"Nic80211p\""
par Scenario.node[24] veinsmobilityType "\"org.car2x.veins.modules.mobility.traci.TraCIMobility\""
par Scenario.node[12].appl typename "\"org.car2x.veins.modules.application.traci.TraCIDemo11p\""
par Scenario.node[12].appl headerLength 80bit
attr unit bit
par Scenario.node[12].appl sendBeacons true
par Scenario.node[12].appl beaconLengthBits 256bit
attr unit bit
par Scenario.node[12].appl beaconUserPriority 7
par Scenario.node[12].appl beaconInterval 0.1s
attr unit s
par Scenario.node[12].appl dataLengthBits 1024bit
attr unit bit
par Scenario.node[12].appl dataOnSch false
par Scenario.node[12].appl dataUserPriority 7
par Scenario.node[12].appl avoidBeaconSynchronization true
par Scenario.node[12].appl sendWSA false
par Scenario.node[12].appl wsaLengthBits 250bit
attr unit bit
par Scenario.node[12].appl wsaInterval 1s
attr unit s
scalar Scenario.node[12].appl generatedWSMs 1
scalar Scenario.node[12].appl receivedWSMs 58
scalar Scenario.node[12].appl generatedBSMs 557
scalar Scenario.node[12].appl receivedBSMs 19334
scalar Scenario.node[12].appl generatedWSAs 0
scalar Scenario.node[12].appl receivedWSAs 0
par Scenario.node[12].nic.phy80211p typename "\"org.car2x.veins.modules.phy.PhyLayer80211p\""
par Scenario.node[12].nic.phy80211p recordStats false
par Scenario.node[12].nic.phy80211p usePropagationDelay true
par Scenario.node[12].nic.phy80211p noiseFloor -98dBm
attr unit dBm
par Scenario.node[12].nic.phy80211p useNoiseFloor true
par Scenario.node[12].nic.phy80211p antenna "<root>...</root> at content:1"
par Scenario.node[12].nic.phy80211p antennaOffsetX 0m
attr unit m
par Scenario.node[12].nic.phy80211p antennaOffsetY 0m
attr unit m
par Scenario.node[12].nic.phy80211p antennaOffsetZ 1.895m
attr unit m
par Scenario.node[12].nic.phy80211p antennaOffsetYaw 0rad
attr unit rad
par Scenario.node[12].nic.phy80211p analogueModels "<root>...</root> at /home/vagrant/spe-homework-project/Project/simulations//config_1.xml:2"
par Scenario.node[12].nic.phy80211p decider "<root>...</root> at /home/vagrant/spe-homework-project/Project/simulations//config_1.xml:2"
par Scenario.node[12].nic.phy80211p minPowerLevel -110dBm
attr unit dBm
par Scenario.node[12].nic.phy80211p timeRXToTX 0s
attr unit s
par Scenario.node[12].nic.phy80211p timeRXToSleep 0s
attr unit s
par Scenario.node[12].nic.phy80211p timeTXToRX 0s
attr unit s
par Scenario.node[12].nic.phy80211p timeTXToSleep 0s
attr unit s
par Scenario.node[12].nic.phy80211p timeSleepToRX 0s
attr unit s
par Scenario.node[12].nic.phy80211p timeSleepToTX 0s
attr unit s
par Scenario.node[12].nic.phy80211p initialRadioState 0
par Scenario.node[12].nic.phy80211p radioMinAtt 1
par Scenario.node[12].nic.phy80211p radioMaxAtt 0
par Scenario.node[12].nic.phy80211p nbRadioChannels 1
par Scenario.node[12].nic.phy80211p initialRadioChannel 0
par Scenario.node[12].nic.phy80211p ccaThreshold -65dBm
attr unit dBm
par Scenario.node[12].nic.phy80211p collectCollisionStatistics false
par Scenario.node[12].nic.phy80211p allowTxDuringRx false
scalar Scenario.node[12].nic.phy80211p busyTime 0.036561723518867
par Scenario.node[12].nic.mac1609_4 typename "\"org.car2x.veins.modules.mac.ieee80211p.Mac1609_4\""
par Scenario.node[12].nic.mac1609_4 notAffectedByHostState false
par Scenario.node[12].nic.mac1609_4 headerLength 0bit
attr unit bit
par Scenario.node[12].nic.mac1609_4 address "\"auto\""
par Scenario.node[12].nic.mac1609_4 useServiceChannel false
par Scenario.node[12].nic.mac1609_4 serviceChannel 1
par Scenario.node[12].nic.mac1609_4 bitrate 6000000bps
attr unit bps
par Scenario.node[12].nic.mac1609_4 syncOffset 0.0003s
attr unit s
par Scenario.node[12].nic.mac1609_4 txPower 20mW
attr unit mW
par Scenario.node[12].nic.mac1609_4 queueSize 0
par Scenario.node[12].nic.mac1609_4 dot11RTSThreshold 12000bit
attr unit bit
par Scenario.node[12].nic.mac1609_4 dot11ShortRetryLimit 7
par Scenario.node[12].nic.mac1609_4 dot11LongRetryLimit 4
par Scenario.node[12].nic.mac1609_4 ackLength 112bit
attr unit bit
par Scenario.node[12].nic.mac1609_4 useAcks false
par Scenario.node[12].nic.mac1609_4 frameErrorRate 0
par Scenario.node[12].nic.mac1609_4 ackErrorRate 0
scalar Scenario.node[12].nic.mac1609_4 ReceivedUnicastPackets 0
scalar Scenario.node[12].nic.mac1609_4 ReceivedBroadcasts 19392
scalar Scenario.node[12].nic.mac1609_4 SentPackets 558
scalar Scenario.node[12].nic.mac1609_4 SentAcknowledgements 0
scalar Scenario.node[12].nic.mac1609_4 RetriesExceeded 0
scalar Scenario.node[12].nic.mac1609_4 SNIRLostPackets 116
scalar Scenario.node[12].nic.mac1609_4 RXTXLostPackets 0
scalar Scenario.node[12].nic.mac1609_4 TotalLostPackets 116
scalar Scenario.node[12].nic.mac1609_4 DroppedPacketsInMac 0
scalar Scenario.node[12].nic.mac1609_4 TooLittleTime 0
scalar Scenario.node[12].nic.mac1609_4 TimesIntoBackoff 558
scalar Scenario.node[12].nic.mac1609_4 SlotsBackoff 838
scalar Scenario.node[12].nic.mac1609_4 NumInternalContention 0
scalar Scenario.node[12].nic.mac1609_4 totalBusyTime 2.086678
scalar Scenario.node[12].nic.mac1609_4 retriesExceeded:count 0
attr recordingmode count
attr source org_car2x_veins_modules_mac_sigRetriesExceeded
scalar Scenario.node[12].nic.mac1609_4 sentAcks:count 0
attr recordingmode count
attr source org_car2x_veins_modules_mac_sigSentAck
scalar Scenario.node[12].nic.mac1609_4 sentPackets:count 558
attr recordingmode count
attr source org_car2x_veins_modules_mac_sigSentPacket
scalar Scenario.node[12].nic.mac1609_4 collisions:count 0
attr recordingmode count
attr source org_car2x_veins_modules_mac_sigCollision
scalar Scenario.node[12].nic.mac1609_4 channelBusy:timeavg 0.037464626638471
attr recordingmode timeavg
attr source org_car2x_veins_modules_mac_sigChannelBusy
par Scenario.node[12].nic typename "\"org.car2x.veins.modules.nic.Nic80211p\""
par Scenario.node[12].nic connectionManagerName "\"connectionManager\""
par Scenario.node[12].veinsmobility typename "\"org.car2x.veins.modules.mobility.traci.TraCIMobility\""
par Scenario.node[12].veinsmobility notAffectedByHostState true
par Scenario.node[12].veinsmobility x 0
par Scenario.node[12].veinsmobility y 0
par Scenario.node[12].veinsmobility z 1.895
par Scenario.node[12].veinsmobility xOrientation 1
par Scenario.node[12].veinsmobility yOrientation 0
par Scenario.node[12].veinsmobility zOrientation 0
par Scenario.node[12].veinsmobility hostPositionOffset 0m
attr unit m
par Scenario.node[12].veinsmobility setHostSpeed false
par Scenario.node[12].veinsmobility accidentCount 0
par Scenario.node[12].veinsmobility accidentStart 43.0672s
attr unit s
par Scenario.node[12].veinsmobility accidentDuration "uniform(30s, 60s)"
attr unit s
par Scenario.node[12].veinsmobility accidentInterval "uniform(30s, 60s)"
attr unit s
scalar Scenario.node[12].veinsmobility startTime 12.1
scalar Scenario.node[12].veinsmobility totalTime 55.6
scalar Scenario.node[12].veinsmobility stopTime 67.8
scalar Scenario.node[12].veinsmobility minSpeed 0.25513097851397
scalar Scenario.node[12].veinsmobility maxSpeed 12.575288124091
scalar Scenario.node[12].veinsmobility totalDistance 573.87329015403
scalar Scenario.node[12].veinsmobility totalCO2Emission 155.63452867006
par Scenario.node[12] typename "\"org.car2x.veins.nodes.Car\""
par Scenario.node[12] applType "\"TraCIDemo11p\""
par Scenario.node[12] nicType "\"Nic80211p\""
par Scenario.node[12] veinsmobilityType "\"org.car2x.veins.modules.mobility.traci.TraCIMobility\""
par Scenario.node[42].appl typename "\"org.car2x.veins.modules.application.traci.TraCIDemo11p\""
par Scenario.node[42].appl headerLength 80bit
attr unit bit
par Scenario.node[42].appl sendBeacons true
par Scenario.node[42].appl beaconLengthBits 256bit
attr unit bit
par Scenario.node[42].appl beaconUserPriority 7
par Scenario.node[42].appl beaconInterval 0.1s
attr unit s
par Scenario.node[42].appl dataLengthBits 1024bit
attr unit bit
par Scenario.node[42].appl dataOnSch false
par Scenario.node[42].appl dataUserPriority 7
par Scenario.node[42].appl avoidBeaconSynchronization true
par Scenario.node[42].appl sendWSA false
par Scenario.node[42].appl wsaLengthBits 250bit
attr unit bit
par Scenario.node[42].appl wsaInterval 1s
attr unit s
scalar Scenario.node[42].appl generatedWSMs 1
scalar Scenario.node[42].appl receivedWSMs 21
scalar Scenario.node[42].appl generatedBSMs 257
scalar Scenario.node[42].appl receivedBSMs 12159
scalar Scenario.node[42].appl generatedWSAs 0
scalar Scenario.node[42].appl receivedWSAs 0
par Scenario.node[42].nic.phy80211p typename "\"org.car2x.veins.modules.phy.PhyLayer80211p\""
par Scenario.node[42].nic.phy80211p recordStats false
par Scenario.node[42].nic.phy80211p usePropagationDelay true
par Scenario.node[42].nic.phy80211p noiseFloor -98dBm
attr unit dBm
par Scenario.node[42].nic.phy80211p useNoiseFloor true
par Scenario.node[42].nic.phy80211p antenna "<root>...</root> at content:1"
par Scenario.node[42].nic.phy80211p antennaOffsetX 0m
attr unit m
par Scenario.node[42].nic.phy80211p antennaOffsetY 0m
attr unit m
par Scenario.node[42].nic.phy80211p antennaOffsetZ 1.895m
attr unit m
par Scenario.node[42].nic.phy80211p antennaOffsetYaw 0rad
attr unit rad
par Scenario.node[42].nic.phy80211p analogueModels "<root>...</root> at /home/vagrant/spe-homework-project/Project/simulations//config_1.xml:2"
par Scenario.node[42].nic.phy80211p decider "<root>...</root> at /home/vagrant/spe-homework-project/Project/simulations//config_1.xml:2"
par Scenario.node[42].nic.phy80211p minPowerLevel -110dBm
attr unit dBm
par Scenario.node[42].nic.phy80211p timeRXToTX 0s
attr unit s
par Scenario.node[42].nic.phy80211p timeRXToSleep 0s
attr unit s
par Scenario.node[42].nic.phy80211p timeTXToRX 0s
attr unit s
par Scenario.node[42].nic.phy80211p timeTXToSleep 0s
attr unit s
par Scenario.node[42].nic.phy80211p timeSleepToRX 0s
attr unit s
par Scenario.node[42].nic.phy80211p timeSleepToTX 0s
attr unit s
par Scenario.node[42].nic.phy80211p initialRadioState 0
par Scenario.node[42].nic.phy80211p radioMinAtt 1
par Scenario.node[42].nic.phy80211p radioMaxAtt 0
par Scenario.node[42].nic.phy80211p nbRadioChannels 1
par Scenario.node[42].nic.phy80211p initialRadioChannel 0
par Scenario.node[42].nic.phy80211p ccaThreshold -65dBm
attr unit dBm
par Scenario.node[42].nic.phy80211p collectCollisionStatistics false
par Scenario.node[42].nic.phy80211p allowTxDuringRx false
scalar Scenario.node[42].nic.phy80211p busyTime 0.049896031128414
par Scenario.node[42].nic.mac1609_4 typename "\"org.car2x.veins.modules.mac.ieee80211p.Mac1609_4\""
par Scenario.node[42].nic.mac1609_4 notAffectedByHostState false
par Scenario.node[42].nic.mac1609_4 headerLength 0bit
attr unit bit
par Scenario.node[42].nic.mac1609_4 address "\"auto\""
par Scenario.node[42].nic.mac1609_4 useServiceChannel false
par Scenario.node[42].nic.mac1609_4 serviceChannel 1
par Scenario.node[42].nic.mac1609_4 bitrate 6000000bps
attr unit bps
par Scenario.node[42].nic.mac1609_4 syncOffset 0.0003s
attr unit s
par Scenario.node[42].nic.mac1609_4 txPower 20mW
attr unit mW
par Scenario.node[42].nic.mac1609_4 queueSize 0
par Scenario.node[42].nic.mac1609_4 dot11RTSThreshold 12000bit
attr unit bit
par Scenario.node[42].nic.mac1609_4 dot11ShortRetryLimit 7
par Scenario.node[42].nic.mac1609_4 dot11LongRetryLimit 4
par Scenario.node[42].nic.mac1609_4 ackLength 112bit
attr unit bit
par Scenario.node[42].nic.mac1609_4 useAcks false
par Scenario.node[42].nic.mac1609_4 frameErrorRate 0
par Scenario.node[42].nic.mac1609_4 ackErrorRate 0
scalar Scenario.node[42].nic.mac1609_4 ReceivedUnicastPackets 0
scalar Scenario.node[42].nic.mac1609_4 ReceivedBroadcasts 12180
scalar Scenario.node[42].nic.mac1609_4 SentPackets 258
scalar Scenario.node[42].nic.mac1609_4 SentAcknowledgements 0
scalar Scenario.node[42].nic.mac1609_4 RetriesExceeded 0
scalar Scenario.node[42].nic.mac1609_4 SNIRLostPackets 123
scalar Scenario.node[42].nic.mac1609_4 RXTXLostPackets 0
scalar Scenario.node[42].nic.mac1609_4 TotalLostPackets 123
scalar Scenario.node[42].nic.mac1609_4 DroppedPacketsInMac 0
scalar Scenario.node[42].nic.mac1609_4 TooLittleTime 0
scalar Scenario.node[42].nic.mac1609_4 TimesIntoBackoff 277
scalar Scenario.node[42].nic.mac1609_4 SlotsBackoff 417
scalar Scenario.node[42].nic.mac1609_4 NumInternalContention 0
scalar Scenario.node[42].nic.mac1609_4 totalBusyTime 1.302266
scalar Scenario.node[42].nic.mac1609_4 retriesExceeded:count 0
attr recordingmode count
attr source org_car2x_veins_modules_mac_sigRetriesExceeded
scalar Scenario.node[42].nic.mac1609_4 sentAcks:count 0
attr recordingmode count
attr source org_car2x_veins_modules_mac_sigSentAck
scalar Scenario.node[42].nic.mac1609_4 sentPackets:count 258
attr recordingmode count
attr source org_car2x_veins_modules_mac_sigSentPacket
scalar Scenario.node[42].nic.mac1609_4 collisions:count 0
attr recordingmode count
attr source org_car2x_veins_modules_mac_sigCollision
scalar Scenario.node[42].nic.mac1609_4 channelBusy:timeavg 0.050671828793784
attr recordingmode timeavg
attr source org_car2x_veins_modules_mac_sigChannelBusy
[...]
attr unit dBm
par Scenario.node[94].nic.phy80211p timeRXToTX 0s
attr unit s
par Scenario.node[94].nic.phy80211p timeRXToSleep 0s
attr unit s
par Scenario.node[94].nic.phy80211p timeTXToRX 0s
attr unit s
par Scenario.node[94].nic.phy80211p timeTXToSleep 0s
attr unit s
par Scenario.node[94].nic.phy80211p timeSleepToRX 0s
attr unit s
par Scenario.node[94].nic.phy80211p timeSleepToTX 0s
attr unit s
par Scenario.node[94].nic.phy80211p initialRadioState 0
par Scenario.node[94].nic.phy80211p radioMinAtt 1
par Scenario.node[94].nic.phy80211p radioMaxAtt 0
par Scenario.node[94].nic.phy80211p nbRadioChannels 1
par Scenario.node[94].nic.phy80211p initialRadioChannel 0
par Scenario.node[94].nic.phy80211p ccaThreshold -65dBm
attr unit dBm
par Scenario.node[94].nic.phy80211p collectCollisionStatistics false
par Scenario.node[94].nic.phy80211p allowTxDuringRx false
scalar Scenario.node[94].nic.phy80211p busyTime 0.074422499999999
par Scenario.node[94].nic.mac1609_4 typename "\"org.car2x.veins.modules.mac.ieee80211p.Mac1609_4\""
par Scenario.node[94].nic.mac1609_4 notAffectedByHostState false
par Scenario.node[94].nic.mac1609_4 headerLength 0bit
attr unit bit
par Scenario.node[94].nic.mac1609_4 address "\"auto\""
par Scenario.node[94].nic.mac1609_4 useServiceChannel false
par Scenario.node[94].nic.mac1609_4 serviceChannel 1
par Scenario.node[94].nic.mac1609_4 bitrate 6000000bps
attr unit bps
par Scenario.node[94].nic.mac1609_4 syncOffset 0.0003s
attr unit s
par Scenario.node[94].nic.mac1609_4 txPower 20mW
attr unit mW
par Scenario.node[94].nic.mac1609_4 queueSize 0
par Scenario.node[94].nic.mac1609_4 dot11RTSThreshold 12000bit
attr unit bit
par Scenario.node[94].nic.mac1609_4 dot11ShortRetryLimit 7
par Scenario.node[94].nic.mac1609_4 dot11LongRetryLimit 4
par Scenario.node[94].nic.mac1609_4 ackLength 112bit
attr unit bit
par Scenario.node[94].nic.mac1609_4 useAcks false
par Scenario.node[94].nic.mac1609_4 frameErrorRate 0
par Scenario.node[94].nic.mac1609_4 ackErrorRate 0
scalar Scenario.node[94].nic.mac1609_4 ReceivedUnicastPackets 0
scalar Scenario.node[94].nic.mac1609_4 ReceivedBroadcasts 2221
scalar Scenario.node[94].nic.mac1609_4 SentPackets 33
scalar Scenario.node[94].nic.mac1609_4 SentAcknowledgements 0
scalar Scenario.node[94].nic.mac1609_4 RetriesExceeded 0
scalar Scenario.node[94].nic.mac1609_4 SNIRLostPackets 64
scalar Scenario.node[94].nic.mac1609_4 RXTXLostPackets 0
scalar Scenario.node[94].nic.mac1609_4 TotalLostPackets 64
scalar Scenario.node[94].nic.mac1609_4 DroppedPacketsInMac 0
scalar Scenario.node[94].nic.mac1609_4 TooLittleTime 0
scalar Scenario.node[94].nic.mac1609_4 TimesIntoBackoff 33
scalar Scenario.node[94].nic.mac1609_4 SlotsBackoff 45
scalar Scenario.node[94].nic.mac1609_4 NumInternalContention 0
scalar Scenario.node[94].nic.mac1609_4 totalBusyTime 0.238417
scalar Scenario.node[94].nic.mac1609_4 retriesExceeded:count 0
attr recordingmode count
attr source org_car2x_veins_modules_mac_sigRetriesExceeded
scalar Scenario.node[94].nic.mac1609_4 sentAcks:count 0
attr recordingmode count
attr source org_car2x_veins_modules_mac_sigSentAck
scalar Scenario.node[94].nic.mac1609_4 sentPackets:count 33
attr recordingmode count
attr source org_car2x_veins_modules_mac_sigSentPacket
scalar Scenario.node[94].nic.mac1609_4 collisions:count 0
attr recordingmode count
attr source org_car2x_veins_modules_mac_sigCollision
scalar Scenario.node[94].nic.mac1609_4 channelBusy:timeavg 0.074505312499999
attr recordingmode timeavg
attr source org_car2x_veins_modules_mac_sigChannelBusy
par Scenario.node[94].nic typename "\"org.car2x.veins.modules.nic.Nic80211p\""
par Scenario.node[94].nic connectionManagerName "\"connectionManager\""
par Scenario.node[94].veinsmobility typename "\"org.car2x.veins.modules.mobility.traci.TraCIMobility\""
par Scenario.node[94].veinsmobility notAffectedByHostState true
par Scenario.node[94].veinsmobility x 0
par Scenario.node[94].veinsmobility y 0
par Scenario.node[94].veinsmobility z 1.895
par Scenario.node[94].veinsmobility xOrientation 1
par Scenario.node[94].veinsmobility yOrientation 0
par Scenario.node[94].veinsmobility zOrientation 0
par Scenario.node[94].veinsmobility hostPositionOffset 0m
attr unit m
par Scenario.node[94].veinsmobility setHostSpeed false
par Scenario.node[94].veinsmobility accidentCount 0
par Scenario.node[94].veinsmobility accidentStart 56.9187s
attr unit s
par Scenario.node[94].veinsmobility accidentDuration "uniform(30s, 60s)"
attr unit s
par Scenario.node[94].veinsmobility accidentInterval "uniform(30s, 60s)"
attr unit s
scalar Scenario.node[94].veinsmobility startTime 96.8
scalar Scenario.node[94].veinsmobility totalTime 3.2
scalar Scenario.node[94].veinsmobility stopTime 100
scalar Scenario.node[94].veinsmobility minSpeed 0.25637836688454
scalar Scenario.node[94].veinsmobility maxSpeed 6.4899446436979
scalar Scenario.node[94].veinsmobility totalDistance 10.729952374671
scalar Scenario.node[94].veinsmobility totalCO2Emission 9.2019515494335
par Scenario.node[94] typename "\"org.car2x.veins.nodes.Car\""
par Scenario.node[94] applType "\"TraCIDemo11p\""
par Scenario.node[94] nicType "\"Nic80211p\""
par Scenario.node[94] veinsmobilityType "\"org.car2x.veins.modules.mobility.traci.TraCIMobility\""
par Scenario.node[95].appl typename "\"org.car2x.veins.modules.application.traci.TraCIDemo11p\""
par Scenario.node[95].appl headerLength 80bit
attr unit bit
par Scenario.node[95].appl sendBeacons true
par Scenario.node[95].appl beaconLengthBits 256bit
attr unit bit
par Scenario.node[95].appl beaconUserPriority 7
par Scenario.node[95].appl beaconInterval 0.1s
attr unit s
par Scenario.node[95].appl dataLengthBits 1024bit
attr unit bit
par Scenario.node[95].appl dataOnSch false
par Scenario.node[95].appl dataUserPriority 7
par Scenario.node[95].appl avoidBeaconSynchronization true
par Scenario.node[95].appl sendWSA false
par Scenario.node[95].appl wsaLengthBits 250bit
attr unit bit
par Scenario.node[95].appl wsaInterval 1s
attr unit s
scalar Scenario.node[95].appl generatedWSMs 1
scalar Scenario.node[95].appl receivedWSMs 4
scalar Scenario.node[95].appl generatedBSMs 23
scalar Scenario.node[95].appl receivedBSMs 1603
scalar Scenario.node[95].appl generatedWSAs 0
scalar Scenario.node[95].appl receivedWSAs 0
par Scenario.node[95].nic.phy80211p typename "\"org.car2x.veins.modules.phy.PhyLayer80211p\""
par Scenario.node[95].nic.phy80211p recordStats false
par Scenario.node[95].nic.phy80211p usePropagationDelay true
par Scenario.node[95].nic.phy80211p noiseFloor -98dBm
attr unit dBm
par Scenario.node[95].nic.phy80211p useNoiseFloor true
par Scenario.node[95].nic.phy80211p antenna "<root>...</root> at content:1"
par Scenario.node[95].nic.phy80211p antennaOffsetX 0m
attr unit m
par Scenario.node[95].nic.phy80211p antennaOffsetY 0m
attr unit m
par Scenario.node[95].nic.phy80211p antennaOffsetZ 1.895m
attr unit m
par Scenario.node[95].nic.phy80211p antennaOffsetYaw 0rad
attr unit rad
par Scenario.node[95].nic.phy80211p analogueModels "<root>...</root> at /home/vagrant/spe-homework-project/Project/simulations//config_1.xml:2"
par Scenario.node[95].nic.phy80211p decider "<root>...</root> at /home/vagrant/spe-homework-project/Project/simulations//config_1.xml:2"
par Scenario.node[95].nic.phy80211p minPowerLevel -110dBm
attr unit dBm
par Scenario.node[95].nic.phy80211p timeRXToTX 0s
attr unit s
par Scenario.node[95].nic.phy80211p timeRXToSleep 0s
attr unit s
par Scenario.node[95].nic.phy80211p timeTXToRX 0s
attr unit s
par Scenario.node[95].nic.phy80211p timeTXToSleep 0s
attr unit s
par Scenario.node[95].nic.phy80211p timeSleepToRX 0s
attr unit s
par Scenario.node[95].nic.phy80211p timeSleepToTX 0s
attr unit s
par Scenario.node[95].nic.phy80211p initialRadioState 0
par Scenario.node[95].nic.phy80211p radioMinAtt 1
par Scenario.node[95].nic.phy80211p radioMaxAtt 0
par Scenario.node[95].nic.phy80211p nbRadioChannels 1
par Scenario.node[95].nic.phy80211p initialRadioChannel 0
par Scenario.node[95].nic.phy80211p ccaThreshold -65dBm
attr unit dBm
par Scenario.node[95].nic.phy80211p collectCollisionStatistics false
par Scenario.node[95].nic.phy80211p allowTxDuringRx false
scalar Scenario.node[95].nic.phy80211p busyTime 0.074786086956522
par Scenario.node[95].nic.mac1609_4 typename "\"org.car2x.veins.modules.mac.ieee80211p.Mac1609_4\""
par Scenario.node[95].nic.mac1609_4 notAffectedByHostState false
par Scenario.node[95].nic.mac1609_4 headerLength 0bit
attr unit bit
par Scenario.node[95].nic.mac1609_4 address "\"auto\""
par Scenario.node[95].nic.mac1609_4 useServiceChannel false
par Scenario.node[95].nic.mac1609_4 serviceChannel 1
par Scenario.node[95].nic.mac1609_4 bitrate 6000000bps
attr unit bps
par Scenario.node[95].nic.mac1609_4 syncOffset 0.0003s
attr unit s
par Scenario.node[95].nic.mac1609_4 txPower 20mW
attr unit mW
par Scenario.node[95].nic.mac1609_4 queueSize 0
par Scenario.node[95].nic.mac1609_4 dot11RTSThreshold 12000bit
attr unit bit
par Scenario.node[95].nic.mac1609_4 dot11ShortRetryLimit 7
par Scenario.node[95].nic.mac1609_4 dot11LongRetryLimit 4
par Scenario.node[95].nic.mac1609_4 ackLength 112bit
attr unit bit
par Scenario.node[95].nic.mac1609_4 useAcks false
par Scenario.node[95].nic.mac1609_4 frameErrorRate 0
par Scenario.node[95].nic.mac1609_4 ackErrorRate 0
scalar Scenario.node[95].nic.mac1609_4 ReceivedUnicastPackets 0
scalar Scenario.node[95].nic.mac1609_4 ReceivedBroadcasts 1607
scalar Scenario.node[95].nic.mac1609_4 SentPackets 24
scalar Scenario.node[95].nic.mac1609_4 SentAcknowledgements 0
scalar Scenario.node[95].nic.mac1609_4 RetriesExceeded 0
scalar Scenario.node[95].nic.mac1609_4 SNIRLostPackets 42
scalar Scenario.node[95].nic.mac1609_4 RXTXLostPackets 0
scalar Scenario.node[95].nic.mac1609_4 TotalLostPackets 42
scalar Scenario.node[95].nic.mac1609_4 DroppedPacketsInMac 0
scalar Scenario.node[95].nic.mac1609_4 TooLittleTime 0
scalar Scenario.node[95].nic.mac1609_4 TimesIntoBackoff 24
scalar Scenario.node[95].nic.mac1609_4 SlotsBackoff 43
scalar Scenario.node[95].nic.mac1609_4 NumInternalContention 0
scalar Scenario.node[95].nic.mac1609_4 totalBusyTime 0.17216
scalar Scenario.node[95].nic.mac1609_4 retriesExceeded:count 0
attr recordingmode count
attr source org_car2x_veins_modules_mac_sigRetriesExceeded
scalar Scenario.node[95].nic.mac1609_4 sentAcks:count 0
attr recordingmode count
attr source org_car2x_veins_modules_mac_sigSentAck
scalar Scenario.node[95].nic.mac1609_4 sentPackets:count 24
attr recordingmode count
attr source org_car2x_veins_modules_mac_sigSentPacket
scalar Scenario.node[95].nic.mac1609_4 collisions:count 0
attr recordingmode count
attr source org_car2x_veins_modules_mac_sigCollision
scalar Scenario.node[95].nic.mac1609_4 channelBusy:timeavg 0.074852173913044
attr recordingmode timeavg
attr source org_car2x_veins_modules_mac_sigChannelBusy
par Scenario.node[95].nic typename "\"org.car2x.veins.modules.nic.Nic80211p\""
par Scenario.node[95].nic connectionManagerName "\"connectionManager\""
par Scenario.node[95].veinsmobility typename "\"org.car2x.veins.modules.mobility.traci.TraCIMobility\""
par Scenario.node[95].veinsmobility notAffectedByHostState true
par Scenario.node[95].veinsmobility x 0
par Scenario.node[95].veinsmobility y 0
par Scenario.node[95].veinsmobility z 1.895
par Scenario.node[95].veinsmobility xOrientation 1
par Scenario.node[95].veinsmobility yOrientation 0
par Scenario.node[95].veinsmobility zOrientation 0
par Scenario.node[95].veinsmobility hostPositionOffset 0m
attr unit m
par Scenario.node[95].veinsmobility setHostSpeed false
par Scenario.node[95].veinsmobility accidentCount 0
par Scenario.node[95].veinsmobility accidentStart 48.1855s
attr unit s
par Scenario.node[95].veinsmobility accidentDuration "uniform(30s, 60s)"
attr unit s
par Scenario.node[95].veinsmobility accidentInterval "uniform(30s, 60s)"
attr unit s
scalar Scenario.node[95].veinsmobility startTime 97.7
scalar Scenario.node[95].veinsmobility totalTime 2.3
scalar Scenario.node[95].veinsmobility stopTime 100
scalar Scenario.node[95].veinsmobility minSpeed 0.2479454163264
scalar Scenario.node[95].veinsmobility maxSpeed 4.4958490092715
scalar Scenario.node[95].veinsmobility totalDistance 5.7739741228944
scalar Scenario.node[95].veinsmobility totalCO2Emission 5.2562215698775
par Scenario.node[95] typename "\"org.car2x.veins.nodes.Car\""
par Scenario.node[95] applType "\"TraCIDemo11p\""
par Scenario.node[95] nicType "\"Nic80211p\""
par Scenario.node[95] veinsmobilityType "\"org.car2x.veins.modules.mobility.traci.TraCIMobility\""
par Scenario.node[96].appl typename "\"org.car2x.veins.modules.application.traci.TraCIDemo11p\""
par Scenario.node[96].appl headerLength 80bit
attr unit bit
par Scenario.node[96].appl sendBeacons true
par Scenario.node[96].appl beaconLengthBits 256bit
attr unit bit
par Scenario.node[96].appl beaconUserPriority 7
par Scenario.node[96].appl beaconInterval 0.1s
attr unit s
par Scenario.node[96].appl dataLengthBits 1024bit
attr unit bit
par Scenario.node[96].appl dataOnSch false
par Scenario.node[96].appl dataUserPriority 7
par Scenario.node[96].appl avoidBeaconSynchronization true
par Scenario.node[96].appl sendWSA false
par Scenario.node[96].appl wsaLengthBits 250bit
attr unit bit
par Scenario.node[96].appl wsaInterval 1s
attr unit s
scalar Scenario.node[96].appl generatedWSMs 0
scalar Scenario.node[96].appl receivedWSMs 2
scalar Scenario.node[96].appl generatedBSMs 21
scalar Scenario.node[96].appl receivedBSMs 1481
scalar Scenario.node[96].appl generatedWSAs 0
scalar Scenario.node[96].appl receivedWSAs 0
par Scenario.node[96].nic.phy80211p typename "\"org.car2x.veins.modules.phy.PhyLayer80211p\""
par Scenario.node[96].nic.phy80211p recordStats false
par Scenario.node[96].nic.phy80211p usePropagationDelay true
par Scenario.node[96].nic.phy80211p noiseFloor -98dBm
attr unit dBm
par Scenario.node[96].nic.phy80211p useNoiseFloor true
par Scenario.node[96].nic.phy80211p antenna "<root>...</root> at content:1"
par Scenario.node[96].nic.phy80211p antennaOffsetX 0m
attr unit m
par Scenario.node[96].nic.phy80211p antennaOffsetY 0m
attr unit m
par Scenario.node[96].nic.phy80211p antennaOffsetZ 1.895m
attr unit m
par Scenario.node[96].nic.phy80211p antennaOffsetYaw 0rad
attr unit rad
par Scenario.node[96].nic.phy80211p analogueModels "<root>...</root> at /home/vagrant/spe-homework-project/Project/simulations//config_1.xml:2"
par Scenario.node[96].nic.phy80211p decider "<root>...</root> at /home/vagrant/spe-homework-project/Project/simulations//config_1.xml:2"
par Scenario.node[96].nic.phy80211p minPowerLevel -110dBm
attr unit dBm
par Scenario.node[96].nic.phy80211p timeRXToTX 0s
attr unit s
par Scenario.node[96].nic.phy80211p timeRXToSleep 0s
attr unit s
par Scenario.node[96].nic.phy80211p timeTXToRX 0s
attr unit s
par Scenario.node[96].nic.phy80211p timeTXToSleep 0s
attr unit s
par Scenario.node[96].nic.phy80211p timeSleepToRX 0s
attr unit s
par Scenario.node[96].nic.phy80211p timeSleepToTX 0s
attr unit s
par Scenario.node[96].nic.phy80211p initialRadioState 0
par Scenario.node[96].nic.phy80211p radioMinAtt 1
par Scenario.node[96].nic.phy80211p radioMaxAtt 0
par Scenario.node[96].nic.phy80211p nbRadioChannels 1
par Scenario.node[96].nic.phy80211p initialRadioChannel 0
par Scenario.node[96].nic.phy80211p ccaThreshold -65dBm
attr unit dBm
par Scenario.node[96].nic.phy80211p collectCollisionStatistics false
par Scenario.node[96].nic.phy80211p allowTxDuringRx false
scalar Scenario.node[96].nic.phy80211p busyTime 0.074655238095239
par Scenario.node[96].nic.mac1609_4 typename "\"org.car2x.veins.modules.mac.ieee80211p.Mac1609_4\""
par Scenario.node[96].nic.mac1609_4 notAffectedByHostState false
par Scenario.node[96].nic.mac1609_4 headerLength 0bit
attr unit bit
par Scenario.node[96].nic.mac1609_4 address "\"auto\""
par Scenario.node[96].nic.mac1609_4 useServiceChannel false
par Scenario.node[96].nic.mac1609_4 serviceChannel 1
par Scenario.node[96].nic.mac1609_4 bitrate 6000000bps
attr unit bps
par Scenario.node[96].nic.mac1609_4 syncOffset 0.0003s
attr unit s
par Scenario.node[96].nic.mac1609_4 txPower 20mW
attr unit mW
par Scenario.node[96].nic.mac1609_4 queueSize 0
par Scenario.node[96].nic.mac1609_4 dot11RTSThreshold 12000bit
attr unit bit
par Scenario.node[96].nic.mac1609_4 dot11ShortRetryLimit 7
par Scenario.node[96].nic.mac1609_4 dot11LongRetryLimit 4
par Scenario.node[96].nic.mac1609_4 ackLength 112bit
attr unit bit
par Scenario.node[96].nic.mac1609_4 useAcks false
par Scenario.node[96].nic.mac1609_4 frameErrorRate 0
par Scenario.node[96].nic.mac1609_4 ackErrorRate 0
scalar Scenario.node[96].nic.mac1609_4 ReceivedUnicastPackets 0
scalar Scenario.node[96].nic.mac1609_4 ReceivedBroadcasts 1483
scalar Scenario.node[96].nic.mac1609_4 SentPackets 21
scalar Scenario.node[96].nic.mac1609_4 SentAcknowledgements 0
scalar Scenario.node[96].nic.mac1609_4 RetriesExceeded 0
scalar Scenario.node[96].nic.mac1609_4 SNIRLostPackets 22
scalar Scenario.node[96].nic.mac1609_4 RXTXLostPackets 0
scalar Scenario.node[96].nic.mac1609_4 TotalLostPackets 22
scalar Scenario.node[96].nic.mac1609_4 DroppedPacketsInMac 0
scalar Scenario.node[96].nic.mac1609_4 TooLittleTime 0
scalar Scenario.node[96].nic.mac1609_4 TimesIntoBackoff 21
scalar Scenario.node[96].nic.mac1609_4 SlotsBackoff 25
scalar Scenario.node[96].nic.mac1609_4 NumInternalContention 0
scalar Scenario.node[96].nic.mac1609_4 totalBusyTime 0.156693
scalar Scenario.node[96].nic.mac1609_4 retriesExceeded:count 0
attr recordingmode count
attr source org_car2x_veins_modules_mac_sigRetriesExceeded
scalar Scenario.node[96].nic.mac1609_4 sentAcks:count 0
attr recordingmode count
attr source org_car2x_veins_modules_mac_sigSentAck
scalar Scenario.node[96].nic.mac1609_4 sentPackets:count 21
attr recordingmode count
attr source org_car2x_veins_modules_mac_sigSentPacket
scalar Scenario.node[96].nic.mac1609_4 collisions:count 0
attr recordingmode count
attr source org_car2x_veins_modules_mac_sigCollision
scalar Scenario.node[96].nic.mac1609_4 channelBusy:timeavg 0.074615714285715
attr recordingmode timeavg
attr source org_car2x_veins_modules_mac_sigChannelBusy
par Scenario.node[96].nic typename "\"org.car2x.veins.modules.nic.Nic80211p\""
par Scenario.node[96].nic connectionManagerName "\"connectionManager\""
par Scenario.node[96].veinsmobility typename "\"org.car2x.veins.modules.mobility.traci.TraCIMobility\""
par Scenario.node[96].veinsmobility notAffectedByHostState true
par Scenario.node[96].veinsmobility x 0
par Scenario.node[96].veinsmobility y 0
par Scenario.node[96].veinsmobility z 1.895
par Scenario.node[96].veinsmobility xOrientation 1
par Scenario.node[96].veinsmobility yOrientation 0
par Scenario.node[96].veinsmobility zOrientation 0
par Scenario.node[96].veinsmobility hostPositionOffset 0m
attr unit m
par Scenario.node[96].veinsmobility setHostSpeed false
par Scenario.node[96].veinsmobility accidentCount 0
par Scenario.node[96].veinsmobility accidentStart 55.1989s
attr unit s
par Scenario.node[96].veinsmobility accidentDuration "uniform(30s, 60s)"
attr unit s
par Scenario.node[96].veinsmobility accidentInterval "uniform(30s, 60s)"
attr unit s
scalar Scenario.node[96].veinsmobility startTime 97.9
scalar Scenario.node[96].veinsmobility totalTime 2.1
scalar Scenario.node[96].veinsmobility stopTime 100
scalar Scenario.node[96].veinsmobility minSpeed 0.25883820894547
scalar Scenario.node[96].veinsmobility maxSpeed 4.7140651571373
scalar Scenario.node[96].veinsmobility totalDistance 5.2255010972834
scalar Scenario.node[96].veinsmobility totalCO2Emission 5.2669377806818
par Scenario.node[96] typename "\"org.car2x.veins.nodes.Car\""
par Scenario.node[96] applType "\"TraCIDemo11p\""
par Scenario.node[96] nicType "\"Nic80211p\""
par Scenario.node[96] veinsmobilityType "\"org.car2x.veins.modules.mobility.traci.TraCIMobility\""
par Scenario typename "\"org.car2x.veins.nodes.Scenario\""
par Scenario playgroundSizeX 600m
attr unit m
par Scenario playgroundSizeY 600m
attr unit m
par Scenario playgroundSizeZ 50m
attr unit m

