version 3
run Scenario4-8-20260627-16:43:59-6729
attr configname Scenario4
attr datetime 20260627-16:43:59
attr datetimef 20260627-164359
attr experiment Scenario4
attr inifile omnetpp.ini
attr iterationvars ""
attr iterationvarsd ""
attr iterationvarsf ""
attr measurement ""
attr network org.car2x.veins.nodes.Scenario
attr processid 6729
attr repetition 8
attr replication #8
attr resultdir results
attr runnumber 8
attr seedset 8
config image-path ../../../veins/images
config extends Scenario3
config *.manager.launchConfig "xmldoc(\"half_traffic.launchd.xml\")"
config description "Obstacle Shadowing (Buildings block signals)"
config *.annotations.draw true
config *.obstacles.obstacles "xmldoc(\"config_3.xml\", \"//AnalogueModel[@type='SimpleObstacleShadowing']/obstacles\")"
config *.**.nic.phy80211p.decider "xmldoc(\"config_3.xml\")"
config *.**.nic.phy80211p.analogueModels "xmldoc(\"config_3.xml\")"
config repeat 10
config seed-set 8
config network org.car2x.veins.nodes.Scenario
config sim-time-limit 100s
config *.playgroundSizeX 600m
config *.playgroundSizeY 600m
config *.playgroundSizeZ 50m
config *.manager.updateInterval 0.1s
config *.manager.host "\"localhost\""
config *.manager.port 9999
config *.manager.autoShutdown true
config *.manager.launchConfig "xmldoc(\"simulation.launchd.xml\")"
config *.node[*].veinsmobility.x 0
config *.node[*].veinsmobility.y 0
config *.node[*].veinsmobility.z 1.895
config *.node[*].applType "\"TraCIDemo11p\""
config *.node[*].appl.headerLength "80 bit"
config *.node[*].appl.sendBeacons true
config *.node[*].appl.dataOnSch false
config *.node[*].appl.beaconInterval 0.1s
config *.connectionManager.sendDirect true
config *.connectionManager.maxInterfDist 500m
config *.connectionManager.drawMaxIntfDist false
config *.**.nic.mac1609_4.useServiceChannel false
config *.**.nic.mac1609_4.txPower 20mW
config *.**.nic.mac1609_4.bitrate 6Mbps
config *.**.nic.phy80211p.minPowerLevel -110dBm
config *.**.nic.phy80211p.useNoiseFloor true
config *.**.nic.phy80211p.noiseFloor -98dBm
config *.**.nic.phy80211p.usePropagationDelay true
config **.vector-recording true
config **.scalar-recording true
config *.**.nic.phy80211p.*.vector-recording true
config *.**.nic.mac1609_4.*.vector-recording true
config **.rcvdPower:vector.vector-recording true
config **.snir:vector.vector-recording true

par Scenario.node[3].appl typename "\"org.car2x.veins.modules.application.traci.TraCIDemo11p\""
par Scenario.node[3].appl headerLength 80bit
attr unit bit
par Scenario.node[3].appl sendBeacons true
par Scenario.node[3].appl beaconLengthBits 256bit
attr unit bit
par Scenario.node[3].appl beaconUserPriority 7
par Scenario.node[3].appl beaconInterval 0.1s
attr unit s
par Scenario.node[3].appl dataLengthBits 1024bit
attr unit bit
par Scenario.node[3].appl dataOnSch false
par Scenario.node[3].appl dataUserPriority 7
par Scenario.node[3].appl avoidBeaconSynchronization true
par Scenario.node[3].appl sendWSA false
par Scenario.node[3].appl wsaLengthBits 250bit
attr unit bit
par Scenario.node[3].appl wsaInterval 1s
attr unit s
scalar Scenario.node[3].appl generatedWSMs 0
scalar Scenario.node[3].appl receivedWSMs 0
scalar Scenario.node[3].appl generatedBSMs 266
scalar Scenario.node[3].appl receivedBSMs 940
scalar Scenario.node[3].appl generatedWSAs 0
scalar Scenario.node[3].appl receivedWSAs 0
par Scenario.node[3].nic.phy80211p typename "\"org.car2x.veins.modules.phy.PhyLayer80211p\""
par Scenario.node[3].nic.phy80211p recordStats false
par Scenario.node[3].nic.phy80211p usePropagationDelay true
par Scenario.node[3].nic.phy80211p noiseFloor -98dBm
attr unit dBm
par Scenario.node[3].nic.phy80211p useNoiseFloor true
par Scenario.node[3].nic.phy80211p antenna "<root>...</root> at content:1"
par Scenario.node[3].nic.phy80211p antennaOffsetX 0m
attr unit m
par Scenario.node[3].nic.phy80211p antennaOffsetY 0m
attr unit m
par Scenario.node[3].nic.phy80211p antennaOffsetZ 1.895m
attr unit m
par Scenario.node[3].nic.phy80211p antennaOffsetYaw 0rad
attr unit rad
par Scenario.node[3].nic.phy80211p analogueModels "<root>...</root> at /home/vagrant/spe-homework-project/Project/simulations//config_3.xml:2"
par Scenario.node[3].nic.phy80211p decider "<root>...</root> at /home/vagrant/spe-homework-project/Project/simulations//config_3.xml:2"
par Scenario.node[3].nic.phy80211p minPowerLevel -110dBm
attr unit dBm
par Scenario.node[3].nic.phy80211p timeRXToTX 0s
attr unit s
par Scenario.node[3].nic.phy80211p timeRXToSleep 0s
attr unit s
par Scenario.node[3].nic.phy80211p timeTXToRX 0s
attr unit s
par Scenario.node[3].nic.phy80211p timeTXToSleep 0s
attr unit s
par Scenario.node[3].nic.phy80211p timeSleepToRX 0s
attr unit s
par Scenario.node[3].nic.phy80211p timeSleepToTX 0s
attr unit s
par Scenario.node[3].nic.phy80211p initialRadioState 0
par Scenario.node[3].nic.phy80211p radioMinAtt 1
par Scenario.node[3].nic.phy80211p radioMaxAtt 0
par Scenario.node[3].nic.phy80211p nbRadioChannels 1
par Scenario.node[3].nic.phy80211p initialRadioChannel 0
par Scenario.node[3].nic.phy80211p ccaThreshold -65dBm
attr unit dBm
par Scenario.node[3].nic.phy80211p collectCollisionStatistics false
par Scenario.node[3].nic.phy80211p allowTxDuringRx false
scalar Scenario.node[3].nic.phy80211p busyTime 0.0041248120300753
par Scenario.node[3].nic.mac1609_4 typename "\"org.car2x.veins.modules.mac.ieee80211p.Mac1609_4\""
par Scenario.node[3].nic.mac1609_4 notAffectedByHostState false
par Scenario.node[3].nic.mac1609_4 headerLength 0bit
attr unit bit
par Scenario.node[3].nic.mac1609_4 address "\"auto\""
par Scenario.node[3].nic.mac1609_4 useServiceChannel false
par Scenario.node[3].nic.mac1609_4 serviceChannel 1
par Scenario.node[3].nic.mac1609_4 bitrate 6000000bps
attr unit bps
par Scenario.node[3].nic.mac1609_4 syncOffset 0.0003s
attr unit s
par Scenario.node[3].nic.mac1609_4 txPower 20mW
attr unit mW
par Scenario.node[3].nic.mac1609_4 queueSize 0
par Scenario.node[3].nic.mac1609_4 dot11RTSThreshold 12000bit
attr unit bit
par Scenario.node[3].nic.mac1609_4 dot11ShortRetryLimit 7
par Scenario.node[3].nic.mac1609_4 dot11LongRetryLimit 4
par Scenario.node[3].nic.mac1609_4 ackLength 112bit
attr unit bit
par Scenario.node[3].nic.mac1609_4 useAcks false
par Scenario.node[3].nic.mac1609_4 frameErrorRate 0
par Scenario.node[3].nic.mac1609_4 ackErrorRate 0
scalar Scenario.node[3].nic.mac1609_4 ReceivedUnicastPackets 0
scalar Scenario.node[3].nic.mac1609_4 ReceivedBroadcasts 940
scalar Scenario.node[3].nic.mac1609_4 SentPackets 266
scalar Scenario.node[3].nic.mac1609_4 SentAcknowledgements 0
scalar Scenario.node[3].nic.mac1609_4 RetriesExceeded 0
scalar Scenario.node[3].nic.mac1609_4 SNIRLostPackets 115
scalar Scenario.node[3].nic.mac1609_4 RXTXLostPackets 0
scalar Scenario.node[3].nic.mac1609_4 TotalLostPackets 115
scalar Scenario.node[3].nic.mac1609_4 DroppedPacketsInMac 0
scalar Scenario.node[3].nic.mac1609_4 TooLittleTime 0
scalar Scenario.node[3].nic.mac1609_4 TimesIntoBackoff 266
scalar Scenario.node[3].nic.mac1609_4 SlotsBackoff 400
scalar Scenario.node[3].nic.mac1609_4 NumInternalContention 0
scalar Scenario.node[3].nic.mac1609_4 totalBusyTime 0.13765
scalar Scenario.node[3].nic.mac1609_4 retriesExceeded:count 0
attr recordingmode count
attr source org_car2x_veins_modules_mac_sigRetriesExceeded
scalar Scenario.node[3].nic.mac1609_4 sentAcks:count 0
attr recordingmode count
attr source org_car2x_veins_modules_mac_sigSentAck
scalar Scenario.node[3].nic.mac1609_4 sentPackets:count 266
attr recordingmode count
attr source org_car2x_veins_modules_mac_sigSentPacket
scalar Scenario.node[3].nic.mac1609_4 collisions:count 0
attr recordingmode count
attr source org_car2x_veins_modules_mac_sigCollision
scalar Scenario.node[3].nic.mac1609_4 channelBusy:timeavg 0.0051748120300753
attr recordingmode timeavg
attr source org_car2x_veins_modules_mac_sigChannelBusy
par Scenario.node[3].nic typename "\"org.car2x.veins.modules.nic.Nic80211p\""
par Scenario.node[3].nic connectionManagerName "\"connectionManager\""
par Scenario.node[3].veinsmobility typename "\"org.car2x.veins.modules.mobility.traci.TraCIMobility\""
par Scenario.node[3].veinsmobility notAffectedByHostState true
par Scenario.node[3].veinsmobility x 0
par Scenario.node[3].veinsmobility y 0
par Scenario.node[3].veinsmobility z 1.895
par Scenario.node[3].veinsmobility xOrientation 1
par Scenario.node[3].veinsmobility yOrientation 0
par Scenario.node[3].veinsmobility zOrientation 0
par Scenario.node[3].veinsmobility hostPositionOffset 0m
attr unit m
par Scenario.node[3].veinsmobility setHostSpeed false
par Scenario.node[3].veinsmobility accidentCount 0
par Scenario.node[3].veinsmobility accidentStart 50.3909s
attr unit s
par Scenario.node[3].veinsmobility accidentDuration "uniform(30s, 60s)"
attr unit s
par Scenario.node[3].veinsmobility accidentInterval "uniform(30s, 60s)"
attr unit s
scalar Scenario.node[3].veinsmobility startTime 6.1
scalar Scenario.node[3].veinsmobility totalTime 26.5
scalar Scenario.node[3].veinsmobility stopTime 32.7
scalar Scenario.node[3].veinsmobility minSpeed 0.25235429966287
scalar Scenario.node[3].veinsmobility maxSpeed 13.344854560255
scalar Scenario.node[3].veinsmobility totalDistance 278.13484619307
scalar Scenario.node[3].veinsmobility totalCO2Emission 87.688859889241
par Scenario.node[3] typename "\"org.car2x.veins.nodes.Car\""
par Scenario.node[3] applType "\"TraCIDemo11p\""
par Scenario.node[3] nicType "\"Nic80211p\""
par Scenario.node[3] veinsmobilityType "\"org.car2x.veins.modules.mobility.traci.TraCIMobility\""
par Scenario.node[0].appl typename "\"org.car2x.veins.modules.application.traci.TraCIDemo11p\""
par Scenario.node[0].appl headerLength 80bit
attr unit bit
par Scenario.node[0].appl sendBeacons true
par Scenario.node[0].appl beaconLengthBits 256bit
attr unit bit
par Scenario.node[0].appl beaconUserPriority 7
par Scenario.node[0].appl beaconInterval 0.1s
attr unit s
par Scenario.node[0].appl dataLengthBits 1024bit
attr unit bit
par Scenario.node[0].appl dataOnSch false
par Scenario.node[0].appl dataUserPriority 7
par Scenario.node[0].appl avoidBeaconSynchronization true
par Scenario.node[0].appl sendWSA false
par Scenario.node[0].appl wsaLengthBits 250bit
attr unit bit
par Scenario.node[0].appl wsaInterval 1s
attr unit s
scalar Scenario.node[0].appl generatedWSMs 0
scalar Scenario.node[0].appl receivedWSMs 0
scalar Scenario.node[0].appl generatedBSMs 476
scalar Scenario.node[0].appl receivedBSMs 1117
scalar Scenario.node[0].appl generatedWSAs 0
scalar Scenario.node[0].appl receivedWSAs 0
par Scenario.node[0].nic.phy80211p typename "\"org.car2x.veins.modules.phy.PhyLayer80211p\""
par Scenario.node[0].nic.phy80211p recordStats false
par Scenario.node[0].nic.phy80211p usePropagationDelay true
par Scenario.node[0].nic.phy80211p noiseFloor -98dBm
attr unit dBm
par Scenario.node[0].nic.phy80211p useNoiseFloor true
par Scenario.node[0].nic.phy80211p antenna "<root>...</root> at content:1"
par Scenario.node[0].nic.phy80211p antennaOffsetX 0m
attr unit m
par Scenario.node[0].nic.phy80211p antennaOffsetY 0m
attr unit m
par Scenario.node[0].nic.phy80211p antennaOffsetZ 1.895m
attr unit m
par Scenario.node[0].nic.phy80211p antennaOffsetYaw 0rad
attr unit rad
par Scenario.node[0].nic.phy80211p analogueModels "<root>...</root> at /home/vagrant/spe-homework-project/Project/simulations//config_3.xml:2"
par Scenario.node[0].nic.phy80211p decider "<root>...</root> at /home/vagrant/spe-homework-project/Project/simulations//config_3.xml:2"
par Scenario.node[0].nic.phy80211p minPowerLevel -110dBm
attr unit dBm
par Scenario.node[0].nic.phy80211p timeRXToTX 0s
attr unit s
par Scenario.node[0].nic.phy80211p timeRXToSleep 0s
attr unit s
par Scenario.node[0].nic.phy80211p timeTXToRX 0s
attr unit s
par Scenario.node[0].nic.phy80211p timeTXToSleep 0s
attr unit s
par Scenario.node[0].nic.phy80211p timeSleepToRX 0s
attr unit s
par Scenario.node[0].nic.phy80211p timeSleepToTX 0s
attr unit s
par Scenario.node[0].nic.phy80211p initialRadioState 0
par Scenario.node[0].nic.phy80211p radioMinAtt 1
par Scenario.node[0].nic.phy80211p radioMaxAtt 0
par Scenario.node[0].nic.phy80211p nbRadioChannels 1
par Scenario.node[0].nic.phy80211p initialRadioChannel 0
par Scenario.node[0].nic.phy80211p ccaThreshold -65dBm
attr unit dBm
par Scenario.node[0].nic.phy80211p collectCollisionStatistics false
par Scenario.node[0].nic.phy80211p allowTxDuringRx false
scalar Scenario.node[0].nic.phy80211p busyTime 0.0029168067226891
par Scenario.node[0].nic.mac1609_4 typename "\"org.car2x.veins.modules.mac.ieee80211p.Mac1609_4\""
par Scenario.node[0].nic.mac1609_4 notAffectedByHostState false
par Scenario.node[0].nic.mac1609_4 headerLength 0bit
attr unit bit
par Scenario.node[0].nic.mac1609_4 address "\"auto\""
par Scenario.node[0].nic.mac1609_4 useServiceChannel false
par Scenario.node[0].nic.mac1609_4 serviceChannel 1
par Scenario.node[0].nic.mac1609_4 bitrate 6000000bps
attr unit bps
par Scenario.node[0].nic.mac1609_4 syncOffset 0.0003s
attr unit s
par Scenario.node[0].nic.mac1609_4 txPower 20mW
attr unit mW
par Scenario.node[0].nic.mac1609_4 queueSize 0
par Scenario.node[0].nic.mac1609_4 dot11RTSThreshold 12000bit
attr unit bit
par Scenario.node[0].nic.mac1609_4 dot11ShortRetryLimit 7
par Scenario.node[0].nic.mac1609_4 dot11LongRetryLimit 4
par Scenario.node[0].nic.mac1609_4 ackLength 112bit
attr unit bit
par Scenario.node[0].nic.mac1609_4 useAcks false
par Scenario.node[0].nic.mac1609_4 frameErrorRate 0
par Scenario.node[0].nic.mac1609_4 ackErrorRate 0
scalar Scenario.node[0].nic.mac1609_4 ReceivedUnicastPackets 0
scalar Scenario.node[0].nic.mac1609_4 ReceivedBroadcasts 1117
scalar Scenario.node[0].nic.mac1609_4 SentPackets 476
scalar Scenario.node[0].nic.mac1609_4 SentAcknowledgements 0
scalar Scenario.node[0].nic.mac1609_4 RetriesExceeded 0
scalar Scenario.node[0].nic.mac1609_4 SNIRLostPackets 218
scalar Scenario.node[0].nic.mac1609_4 RXTXLostPackets 0
scalar Scenario.node[0].nic.mac1609_4 TotalLostPackets 218
scalar Scenario.node[0].nic.mac1609_4 DroppedPacketsInMac 0
scalar Scenario.node[0].nic.mac1609_4 TooLittleTime 0
scalar Scenario.node[0].nic.mac1609_4 TimesIntoBackoff 476
scalar Scenario.node[0].nic.mac1609_4 SlotsBackoff 751
scalar Scenario.node[0].nic.mac1609_4 NumInternalContention 0
scalar Scenario.node[0].nic.mac1609_4 totalBusyTime 0.18882
scalar Scenario.node[0].nic.mac1609_4 retriesExceeded:count 0
attr recordingmode count
attr source org_car2x_veins_modules_mac_sigRetriesExceeded
scalar Scenario.node[0].nic.mac1609_4 sentAcks:count 0
attr recordingmode count
attr source org_car2x_veins_modules_mac_sigSentAck
scalar Scenario.node[0].nic.mac1609_4 sentPackets:count 476
attr recordingmode count
attr source org_car2x_veins_modules_mac_sigSentPacket
scalar Scenario.node[0].nic.mac1609_4 collisions:count 0
attr recordingmode count
attr source org_car2x_veins_modules_mac_sigCollision
scalar Scenario.node[0].nic.mac1609_4 channelBusy:timeavg 0.003966806722689
attr recordingmode timeavg
attr source org_car2x_veins_modules_mac_sigChannelBusy
par Scenario.node[0].nic typename "\"org.car2x.veins.modules.nic.Nic80211p\""
par Scenario.node[0].nic connectionManagerName "\"connectionManager\""
par Scenario.node[0].veinsmobility typename "\"org.car2x.veins.modules.mobility.traci.TraCIMobility\""
par Scenario.node[0].veinsmobility notAffectedByHostState true
par Scenario.node[0].veinsmobility x 0
par Scenario.node[0].veinsmobility y 0
par Scenario.node[0].veinsmobility z 1.895
par Scenario.node[0].veinsmobility xOrientation 1
par Scenario.node[0].veinsmobility yOrientation 0
par Scenario.node[0].veinsmobility zOrientation 0
par Scenario.node[0].veinsmobility hostPositionOffset 0m
attr unit m
par Scenario.node[0].veinsmobility setHostSpeed false
par Scenario.node[0].veinsmobility accidentCount 0
par Scenario.node[0].veinsmobility accidentStart 56.2029s
attr unit s
par Scenario.node[0].veinsmobility accidentDuration "uniform(30s, 60s)"
attr unit s
par Scenario.node[0].veinsmobility accidentInterval "uniform(30s, 60s)"
attr unit s
scalar Scenario.node[0].veinsmobility startTime 0.1
scalar Scenario.node[0].veinsmobility totalTime 47.5
scalar Scenario.node[0].veinsmobility stopTime 47.7
scalar Scenario.node[0].veinsmobility minSpeed 0.25404528568941
scalar Scenario.node[0].veinsmobility maxSpeed 15.209961270213
scalar Scenario.node[0].veinsmobility totalDistance 570.56445251498
scalar Scenario.node[0].veinsmobility totalCO2Emission 172.23858884542
par Scenario.node[0] typename "\"org.car2x.veins.nodes.Car\""
par Scenario.node[0] applType "\"TraCIDemo11p\""
par Scenario.node[0] nicType "\"Nic80211p\""
par Scenario.node[0] veinsmobilityType "\"org.car2x.veins.modules.mobility.traci.TraCIMobility\""
par Scenario.node[5].appl typename "\"org.car2x.veins.modules.application.traci.TraCIDemo11p\""
par Scenario.node[5].appl headerLength 80bit
attr unit bit
par Scenario.node[5].appl sendBeacons true
par Scenario.node[5].appl beaconLengthBits 256bit
attr unit bit
par Scenario.node[5].appl beaconUserPriority 7
par Scenario.node[5].appl beaconInterval 0.1s
attr unit s
par Scenario.node[5].appl dataLengthBits 1024bit
attr unit bit
par Scenario.node[5].appl dataOnSch false
par Scenario.node[5].appl dataUserPriority 7
par Scenario.node[5].appl avoidBeaconSynchronization true
par Scenario.node[5].appl sendWSA false
par Scenario.node[5].appl wsaLengthBits 250bit
attr unit bit
par Scenario.node[5].appl wsaInterval 1s
attr unit s
scalar Scenario.node[5].appl generatedWSMs 0
scalar Scenario.node[5].appl receivedWSMs 0
scalar Scenario.node[5].appl generatedBSMs 390
scalar Scenario.node[5].appl receivedBSMs 2304
scalar Scenario.node[5].appl generatedWSAs 0
scalar Scenario.node[5].appl receivedWSAs 0
par Scenario.node[5].nic.phy80211p typename "\"org.car2x.veins.modules.phy.PhyLayer80211p\""
par Scenario.node[5].nic.phy80211p recordStats false
par Scenario.node[5].nic.phy80211p usePropagationDelay true
par Scenario.node[5].nic.phy80211p noiseFloor -98dBm
attr unit dBm
par Scenario.node[5].nic.phy80211p useNoiseFloor true
par Scenario.node[5].nic.phy80211p antenna "<root>...</root> at content:1"
par Scenario.node[5].nic.phy80211p antennaOffsetX 0m
attr unit m
par Scenario.node[5].nic.phy80211p antennaOffsetY 0m
attr unit m
par Scenario.node[5].nic.phy80211p antennaOffsetZ 1.895m
attr unit m
par Scenario.node[5].nic.phy80211p antennaOffsetYaw 0rad
attr unit rad
par Scenario.node[5].nic.phy80211p analogueModels "<root>...</root> at /home/vagrant/spe-homework-project/Project/simulations//config_3.xml:2"
par Scenario.node[5].nic.phy80211p decider "<root>...</root> at /home/vagrant/spe-homework-project/Project/simulations//config_3.xml:2"
par Scenario.node[5].nic.phy80211p minPowerLevel -110dBm
attr unit dBm
par Scenario.node[5].nic.phy80211p timeRXToTX 0s
attr unit s
par Scenario.node[5].nic.phy80211p timeRXToSleep 0s
attr unit s
par Scenario.node[5].nic.phy80211p timeTXToRX 0s
attr unit s
par Scenario.node[5].nic.phy80211p timeTXToSleep 0s
attr unit s
par Scenario.node[5].nic.phy80211p timeSleepToRX 0s
attr unit s
par Scenario.node[5].nic.phy80211p timeSleepToTX 0s
attr unit s
par Scenario.node[5].nic.phy80211p initialRadioState 0
par Scenario.node[5].nic.phy80211p radioMinAtt 1
par Scenario.node[5].nic.phy80211p radioMaxAtt 0
par Scenario.node[5].nic.phy80211p nbRadioChannels 1
par Scenario.node[5].nic.phy80211p initialRadioChannel 0
par Scenario.node[5].nic.phy80211p ccaThreshold -65dBm
attr unit dBm
par Scenario.node[5].nic.phy80211p collectCollisionStatistics false
par Scenario.node[5].nic.phy80211p allowTxDuringRx false
scalar Scenario.node[5].nic.phy80211p busyTime 0.0075226666666665
par Scenario.node[5].nic.mac1609_4 typename "\"org.car2x.veins.modules.mac.ieee80211p.Mac1609_4\""
par Scenario.node[5].nic.mac1609_4 notAffectedByHostState false
par Scenario.node[5].nic.mac1609_4 headerLength 0bit
attr unit bit
par Scenario.node[5].nic.mac1609_4 address "\"auto\""
par Scenario.node[5].nic.mac1609_4 useServiceChannel false
par Scenario.node[5].nic.mac1609_4 serviceChannel 1
par Scenario.node[5].nic.mac1609_4 bitrate 6000000bps
attr unit bps
par Scenario.node[5].nic.mac1609_4 syncOffset 0.0003s
attr unit s
par Scenario.node[5].nic.mac1609_4 txPower 20mW
attr unit mW
par Scenario.node[5].nic.mac1609_4 queueSize 0
par Scenario.node[5].nic.mac1609_4 dot11RTSThreshold 12000bit
attr unit bit
par Scenario.node[5].nic.mac1609_4 dot11ShortRetryLimit 7
par Scenario.node[5].nic.mac1609_4 dot11LongRetryLimit 4
par Scenario.node[5].nic.mac1609_4 ackLength 112bit
attr unit bit
par Scenario.node[5].nic.mac1609_4 useAcks false
par Scenario.node[5].nic.mac1609_4 frameErrorRate 0
par Scenario.node[5].nic.mac1609_4 ackErrorRate 0
scalar Scenario.node[5].nic.mac1609_4 ReceivedUnicastPackets 0
scalar Scenario.node[5].nic.mac1609_4 ReceivedBroadcasts 2304
scalar Scenario.node[5].nic.mac1609_4 SentPackets 390
scalar Scenario.node[5].nic.mac1609_4 SentAcknowledgements 0
scalar Scenario.node[5].nic.mac1609_4 RetriesExceeded 0
scalar Scenario.node[5].nic.mac1609_4 SNIRLostPackets 517
scalar Scenario.node[5].nic.mac1609_4 RXTXLostPackets 0
scalar Scenario.node[5].nic.mac1609_4 TotalLostPackets 517
scalar Scenario.node[5].nic.mac1609_4 DroppedPacketsInMac 0
scalar Scenario.node[5].nic.mac1609_4 TooLittleTime 0
scalar Scenario.node[5].nic.mac1609_4 TimesIntoBackoff 390
scalar Scenario.node[5].nic.mac1609_4 SlotsBackoff 552
scalar Scenario.node[5].nic.mac1609_4 NumInternalContention 0
scalar Scenario.node[5].nic.mac1609_4 totalBusyTime 0.326742956598
scalar Scenario.node[5].nic.mac1609_4 retriesExceeded:count 0
attr recordingmode count
attr source org_car2x_veins_modules_mac_sigRetriesExceeded
scalar Scenario.node[5].nic.mac1609_4 sentAcks:count 0
attr recordingmode count
attr source org_car2x_veins_modules_mac_sigSentAck
scalar Scenario.node[5].nic.mac1609_4 sentPackets:count 390
attr recordingmode count
attr source org_car2x_veins_modules_mac_sigSentPacket
scalar Scenario.node[5].nic.mac1609_4 collisions:count 0
attr recordingmode count
attr source org_car2x_veins_modules_mac_sigCollision
scalar Scenario.node[5].nic.mac1609_4 channelBusy:timeavg 0.0083780245281537
attr recordingmode timeavg
attr source org_car2x_veins_modules_mac_sigChannelBusy
par Scenario.node[5].nic typename "\"org.car2x.veins.modules.nic.Nic80211p\""
par Scenario.node[5].nic connectionManagerName "\"connectionManager\""
par Scenario.node[5].veinsmobility typename "\"org.car2x.veins.modules.mobility.traci.TraCIMobility\""
par Scenario.node[5].veinsmobility notAffectedByHostState true
par Scenario.node[5].veinsmobility x 0
par Scenario.node[5].veinsmobility y 0
par Scenario.node[5].veinsmobility z 1.895
par Scenario.node[5].veinsmobility xOrientation 1
par Scenario.node[5].veinsmobility yOrientation 0
par Scenario.node[5].veinsmobility zOrientation 0
par Scenario.node[5].veinsmobility hostPositionOffset 0m
attr unit m
par Scenario.node[5].veinsmobility setHostSpeed false
par Scenario.node[5].veinsmobility accidentCount 0
par Scenario.node[5].veinsmobility accidentStart 30.3551s
attr unit s
par Scenario.node[5].veinsmobility accidentDuration "uniform(30s, 60s)"
attr unit s
par Scenario.node[5].veinsmobility accidentInterval "uniform(30s, 60s)"
attr unit s
scalar Scenario.node[5].veinsmobility startTime 10.1
scalar Scenario.node[5].veinsmobility totalTime 38.9
scalar Scenario.node[5].veinsmobility stopTime 49.1
scalar Scenario.node[5].veinsmobility minSpeed 0.25289044094342
scalar Scenario.node[5].veinsmobility maxSpeed 13.980784041221
scalar Scenario.node[5].veinsmobility totalDistance 422.35638365645
scalar Scenario.node[5].veinsmobility totalCO2Emission 136.20385319556
par Scenario.node[5] typename "\"org.car2x.veins.nodes.Car\""
par Scenario.node[5] applType "\"TraCIDemo11p\""
par Scenario.node[5] nicType "\"Nic80211p\""
par Scenario.node[5] veinsmobilityType "\"org.car2x.veins.modules.mobility.traci.TraCIMobility\""
par Scenario.node[8].appl typename "\"org.car2x.veins.modules.application.traci.TraCIDemo11p\""
par Scenario.node[8].appl headerLength 80bit
attr unit bit
par Scenario.node[8].appl sendBeacons true
par Scenario.node[8].appl beaconLengthBits 256bit
attr unit bit
par Scenario.node[8].appl beaconUserPriority 7
par Scenario.node[8].appl beaconInterval 0.1s
attr unit s
par Scenario.node[8].appl dataLengthBits 1024bit
attr unit bit
par Scenario.node[8].appl dataOnSch false
par Scenario.node[8].appl dataUserPriority 7
par Scenario.node[8].appl avoidBeaconSynchronization true
par Scenario.node[8].appl sendWSA false
par Scenario.node[8].appl wsaLengthBits 250bit
attr unit bit
par Scenario.node[8].appl wsaInterval 1s
attr unit s
scalar Scenario.node[8].appl generatedWSMs 0
scalar Scenario.node[8].appl receivedWSMs 0
scalar Scenario.node[8].appl generatedBSMs 388
scalar Scenario.node[8].appl receivedBSMs 2256
scalar Scenario.node[8].appl generatedWSAs 0
scalar Scenario.node[8].appl receivedWSAs 0
par Scenario.node[8].nic.phy80211p typename "\"org.car2x.veins.modules.phy.PhyLayer80211p\""
par Scenario.node[8].nic.phy80211p recordStats false
par Scenario.node[8].nic.phy80211p usePropagationDelay true
par Scenario.node[8].nic.phy80211p noiseFloor -98dBm
attr unit dBm
par Scenario.node[8].nic.phy80211p useNoiseFloor true
par Scenario.node[8].nic.phy80211p antenna "<root>...</root> at content:1"
par Scenario.node[8].nic.phy80211p antennaOffsetX 0m
attr unit m
par Scenario.node[8].nic.phy80211p antennaOffsetY 0m
attr unit m
par Scenario.node[8].nic.phy80211p antennaOffsetZ 1.895m
attr unit m
par Scenario.node[8].nic.phy80211p antennaOffsetYaw 0rad
attr unit rad
par Scenario.node[8].nic.phy80211p analogueModels "<root>...</root> at /home/vagrant/spe-homework-project/Project/simulations//config_3.xml:2"
par Scenario.node[8].nic.phy80211p decider "<root>...</root> at /home/vagrant/spe-homework-project/Project/simulations//config_3.xml:2"
par Scenario.node[8].nic.phy80211p minPowerLevel -110dBm
attr unit dBm
par Scenario.node[8].nic.phy80211p timeRXToTX 0s
attr unit s
par Scenario.node[8].nic.phy80211p timeRXToSleep 0s
attr unit s
par Scenario.node[8].nic.phy80211p timeTXToRX 0s
attr unit s
par Scenario.node[8].nic.phy80211p timeTXToSleep 0s
attr unit s
par Scenario.node[8].nic.phy80211p timeSleepToRX 0s
attr unit s
par Scenario.node[8].nic.phy80211p timeSleepToTX 0s
attr unit s
par Scenario.node[8].nic.phy80211p initialRadioState 0
par Scenario.node[8].nic.phy80211p radioMinAtt 1
par Scenario.node[8].nic.phy80211p radioMaxAtt 0
par Scenario.node[8].nic.phy80211p nbRadioChannels 1
par Scenario.node[8].nic.phy80211p initialRadioChannel 0
par Scenario.node[8].nic.phy80211p ccaThreshold -65dBm
attr unit dBm
par Scenario.node[8].nic.phy80211p collectCollisionStatistics false
par Scenario.node[8].nic.phy80211p allowTxDuringRx false
scalar Scenario.node[8].nic.phy80211p busyTime 0.0083012371134018
par Scenario.node[8].nic.mac1609_4 typename "\"org.car2x.veins.modules.mac.ieee80211p.Mac1609_4\""
par Scenario.node[8].nic.mac1609_4 notAffectedByHostState false
par Scenario.node[8].nic.mac1609_4 headerLength 0bit
attr unit bit
par Scenario.node[8].nic.mac1609_4 address "\"auto\""
par Scenario.node[8].nic.mac1609_4 useServiceChannel false
par Scenario.node[8].nic.mac1609_4 serviceChannel 1
par Scenario.node[8].nic.mac1609_4 bitrate 6000000bps
attr unit bps
par Scenario.node[8].nic.mac1609_4 syncOffset 0.0003s
attr unit s
par Scenario.node[8].nic.mac1609_4 txPower 20mW
attr unit mW
par Scenario.node[8].nic.mac1609_4 queueSize 0
par Scenario.node[8].nic.mac1609_4 dot11RTSThreshold 12000bit
attr unit bit
par Scenario.node[8].nic.mac1609_4 dot11ShortRetryLimit 7
par Scenario.node[8].nic.mac1609_4 dot11LongRetryLimit 4
par Scenario.node[8].nic.mac1609_4 ackLength 112bit
attr unit bit
par Scenario.node[8].nic.mac1609_4 useAcks false
par Scenario.node[8].nic.mac1609_4 frameErrorRate 0
par Scenario.node[8].nic.mac1609_4 ackErrorRate 0
scalar Scenario.node[8].nic.mac1609_4 ReceivedUnicastPackets 0
scalar Scenario.node[8].nic.mac1609_4 ReceivedBroadcasts 2256
scalar Scenario.node[8].nic.mac1609_4 SentPackets 388
scalar Scenario.node[8].nic.mac1609_4 SentAcknowledgements 0
scalar Scenario.node[8].nic.mac1609_4 RetriesExceeded 0
scalar Scenario.node[8].nic.mac1609_4 SNIRLostPackets 841
scalar Scenario.node[8].nic.mac1609_4 RXTXLostPackets 0
scalar Scenario.node[8].nic.mac1609_4 TotalLostPackets 841
scalar Scenario.node[8].nic.mac1609_4 DroppedPacketsInMac 0
scalar Scenario.node[8].nic.mac1609_4 TooLittleTime 0
scalar Scenario.node[8].nic.mac1609_4 TimesIntoBackoff 388
scalar Scenario.node[8].nic.mac1609_4 SlotsBackoff 563
scalar Scenario.node[8].nic.mac1609_4 NumInternalContention 0
scalar Scenario.node[8].nic.mac1609_4 totalBusyTime 0.335372
scalar Scenario.node[8].nic.mac1609_4 retriesExceeded:count 0
attr recordingmode count
attr source org_car2x_veins_modules_mac_sigRetriesExceeded
scalar Scenario.node[8].nic.mac1609_4 sentAcks:count 0
attr recordingmode count
attr source org_car2x_veins_modules_mac_sigSentAck
scalar Scenario.node[8].nic.mac1609_4 sentPackets:count 388
attr recordingmode count
attr source org_car2x_veins_modules_mac_sigSentPacket
scalar Scenario.node[8].nic.mac1609_4 collisions:count 0
attr recordingmode count
attr source org_car2x_veins_modules_mac_sigCollision
scalar Scenario.node[8].nic.mac1609_4 channelBusy:timeavg 0.0086436082474225
attr recordingmode timeavg
attr source org_car2x_veins_modules_mac_sigChannelBusy
par Scenario.node[8].nic typename "\"org.car2x.veins.modules.nic.Nic80211p\""
par Scenario.node[8].nic connectionManagerName "\"connectionManager\""
par Scenario.node[8].veinsmobility typename "\"org.car2x.veins.modules.mobility.traci.TraCIMobility\""
par Scenario.node[8].veinsmobility notAffectedByHostState true
par Scenario.node[8].veinsmobility x 0
par Scenario.node[8].veinsmobility y 0
par Scenario.node[8].veinsmobility z 1.895
par Scenario.node[8].veinsmobility xOrientation 1
par Scenario.node[8].veinsmobility yOrientation 0
par Scenario.node[8].veinsmobility zOrientation 0
par Scenario.node[8].veinsmobility hostPositionOffset 0m
attr unit m
par Scenario.node[8].veinsmobility setHostSpeed false
par Scenario.node[8].veinsmobility accidentCount 0
par Scenario.node[8].veinsmobility accidentStart 46.6712s
attr unit s
par Scenario.node[8].veinsmobility accidentDuration "uniform(30s, 60s)"
attr unit s
par Scenario.node[8].veinsmobility accidentInterval "uniform(30s, 60s)"
attr unit s
scalar Scenario.node[8].veinsmobility startTime 16.1
scalar Scenario.node[8].veinsmobility totalTime 38.7
scalar Scenario.node[8].veinsmobility stopTime 54.9
scalar Scenario.node[8].veinsmobility minSpeed 0.24883443946135
scalar Scenario.node[8].veinsmobility maxSpeed 14.439476042746
scalar Scenario.node[8].veinsmobility totalDistance 420.70062721674
scalar Scenario.node[8].veinsmobility totalCO2Emission 141.15081340809
par Scenario.node[8] typename "\"org.car2x.veins.nodes.Car\""
par Scenario.node[8] applType "\"TraCIDemo11p\""
par Scenario.node[8] nicType "\"Nic80211p\""
par Scenario.node[8] veinsmobilityType "\"org.car2x.veins.modules.mobility.traci.TraCIMobility\""
par Scenario.node[9].appl typename "\"org.car2x.veins.modules.application.traci.TraCIDemo11p\""
par Scenario.node[9].appl headerLength 80bit
attr unit bit
par Scenario.node[9].appl sendBeacons true
par Scenario.node[9].appl beaconLengthBits 256bit
attr unit bit
par Scenario.node[9].appl beaconUserPriority 7
par Scenario.node[9].appl beaconInterval 0.1s
attr unit s
par Scenario.node[9].appl dataLengthBits 1024bit
attr unit bit
par Scenario.node[9].appl dataOnSch false
par Scenario.node[9].appl dataUserPriority 7
par Scenario.node[9].appl avoidBeaconSynchronization true
par Scenario.node[9].appl sendWSA false
par Scenario.node[9].appl wsaLengthBits 250bit
attr unit bit
par Scenario.node[9].appl wsaInterval 1s
attr unit s
scalar Scenario.node[9].appl generatedWSMs 0
scalar Scenario.node[9].appl receivedWSMs 0
scalar Scenario.node[9].appl generatedBSMs 386
scalar Scenario.node[9].appl receivedBSMs 2943
scalar Scenario.node[9].appl generatedWSAs 0
scalar Scenario.node[9].appl receivedWSAs 0
par Scenario.node[9].nic.phy80211p typename "\"org.car2x.veins.modules.phy.PhyLayer80211p\""
par Scenario.node[9].nic.phy80211p recordStats false
par Scenario.node[9].nic.phy80211p usePropagationDelay true
par Scenario.node[9].nic.phy80211p noiseFloor -98dBm
attr unit dBm
par Scenario.node[9].nic.phy80211p useNoiseFloor true
par Scenario.node[9].nic.phy80211p antenna "<root>...</root> at content:1"
par Scenario.node[9].nic.phy80211p antennaOffsetX 0m
attr unit m
par Scenario.node[9].nic.phy80211p antennaOffsetY 0m
attr unit m
par Scenario.node[9].nic.phy80211p antennaOffsetZ 1.895m
attr unit m
par Scenario.node[9].nic.phy80211p antennaOffsetYaw 0rad
attr unit rad
par Scenario.node[9].nic.phy80211p analogueModels "<root>...</root> at /home/vagrant/spe-homework-project/Project/simulations//config_3.xml:2"
par Scenario.node[9].nic.phy80211p decider "<root>...</root> at /home/vagrant/spe-homework-project/Project/simulations//config_3.xml:2"
par Scenario.node[9].nic.phy80211p minPowerLevel -110dBm
attr unit dBm
par Scenario.node[9].nic.phy80211p timeRXToTX 0s
attr unit s
par Scenario.node[9].nic.phy80211p timeRXToSleep 0s
attr unit s
par Scenario.node[9].nic.phy80211p timeTXToRX 0s
attr unit s
par Scenario.node[9].nic.phy80211p timeTXToSleep 0s
attr unit s
par Scenario.node[9].nic.phy80211p timeSleepToRX 0s
attr unit s
par Scenario.node[9].nic.phy80211p timeSleepToTX 0s
attr unit s
par Scenario.node[9].nic.phy80211p initialRadioState 0
par Scenario.node[9].nic.phy80211p radioMinAtt 1
par Scenario.node[9].nic.phy80211p radioMaxAtt 0
par Scenario.node[9].nic.phy80211p nbRadioChannels 1
par Scenario.node[9].nic.phy80211p initialRadioChannel 0
par Scenario.node[9].nic.phy80211p ccaThreshold -65dBm
attr unit dBm
par Scenario.node[9].nic.phy80211p collectCollisionStatistics false
par Scenario.node[9].nic.phy80211p allowTxDuringRx false
scalar Scenario.node[9].nic.phy80211p busyTime 0.0087430051813469
par Scenario.node[9].nic.mac1609_4 typename "\"org.car2x.veins.modules.mac.ieee80211p.Mac1609_4\""
par Scenario.node[9].nic.mac1609_4 notAffectedByHostState false
par Scenario.node[9].nic.mac1609_4 headerLength 0bit
attr unit bit
par Scenario.node[9].nic.mac1609_4 address "\"auto\""
par Scenario.node[9].nic.mac1609_4 useServiceChannel false
par Scenario.node[9].nic.mac1609_4 serviceChannel 1
par Scenario.node[9].nic.mac1609_4 bitrate 6000000bps
attr unit bps
par Scenario.node[9].nic.mac1609_4 syncOffset 0.0003s
attr unit s
par Scenario.node[9].nic.mac1609_4 txPower 20mW
attr unit mW
par Scenario.node[9].nic.mac1609_4 queueSize 0
par Scenario.node[9].nic.mac1609_4 dot11RTSThreshold 12000bit
attr unit bit
par Scenario.node[9].nic.mac1609_4 dot11ShortRetryLimit 7
par Scenario.node[9].nic.mac1609_4 dot11LongRetryLimit 4
par Scenario.node[9].nic.mac1609_4 ackLength 112bit
attr unit bit
par Scenario.node[9].nic.mac1609_4 useAcks false
par Scenario.node[9].nic.mac1609_4 frameErrorRate 0
par Scenario.node[9].nic.mac1609_4 ackErrorRate 0
scalar Scenario.node[9].nic.mac1609_4 ReceivedUnicastPackets 0
scalar Scenario.node[9].nic.mac1609_4 ReceivedBroadcasts 2943
scalar Scenario.node[9].nic.mac1609_4 SentPackets 386
scalar Scenario.node[9].nic.mac1609_4 SentAcknowledgements 0
scalar Scenario.node[9].nic.mac1609_4 RetriesExceeded 0
scalar Scenario.node[9].nic.mac1609_4 SNIRLostPackets 302
scalar Scenario.node[9].nic.mac1609_4 RXTXLostPackets 0
scalar Scenario.node[9].nic.mac1609_4 TotalLostPackets 302
scalar Scenario.node[9].nic.mac1609_4 DroppedPacketsInMac 0
scalar Scenario.node[9].nic.mac1609_4 TooLittleTime 0
scalar Scenario.node[9].nic.mac1609_4 TimesIntoBackoff 386
scalar Scenario.node[9].nic.mac1609_4 SlotsBackoff 589
scalar Scenario.node[9].nic.mac1609_4 NumInternalContention 0
scalar Scenario.node[9].nic.mac1609_4 totalBusyTime 0.37801
scalar Scenario.node[9].nic.mac1609_4 retriesExceeded:count 0
attr recordingmode count
attr source org_car2x_veins_modules_mac_sigRetriesExceeded
scalar Scenario.node[9].nic.mac1609_4 sentAcks:count 0
attr recordingmode count
attr source org_car2x_veins_modules_mac_sigSentAck
scalar Scenario.node[9].nic.mac1609_4 sentPackets:count 386
attr recordingmode count
attr source org_car2x_veins_modules_mac_sigSentPacket
scalar Scenario.node[9].nic.mac1609_4 collisions:count 0
attr recordingmode count
attr source org_car2x_veins_modules_mac_sigCollision
scalar Scenario.node[9].nic.mac1609_4 channelBusy:timeavg 0.0097930051813469
attr recordingmode timeavg
attr source org_car2x_veins_modules_mac_sigChannelBusy
par Scenario.node[9].nic typename "\"org.car2x.veins.modules.nic.Nic80211p\""
par Scenario.node[9].nic connectionManagerName "\"connectionManager\""
par Scenario.node[9].veinsmobility typename "\"org.car2x.veins.modules.mobility.traci.TraCIMobility\""
par Scenario.node[9].veinsmobility notAffectedByHostState true
par Scenario.node[9].veinsmobility x 0
par Scenario.node[9].veinsmobility y 0
par Scenario.node[9].veinsmobility z 1.895
par Scenario.node[9].veinsmobility xOrientation 1
par Scenario.node[9].veinsmobility yOrientation 0
par Scenario.node[9].veinsmobility zOrientation 0
par Scenario.node[9].veinsmobility hostPositionOffset 0m
attr unit m
par Scenario.node[9].veinsmobility setHostSpeed false
par Scenario.node[9].veinsmobility accidentCount 0
par Scenario.node[9].veinsmobility accidentStart 53.4339s
attr unit s
par Scenario.node[9].veinsmobility accidentDuration "uniform(30s, 60s)"
attr unit s
par Scenario.node[9].veinsmobility accidentInterval "uniform(30s, 60s)"
attr unit s
scalar Scenario.node[9].veinsmobility startTime 18.1
scalar Scenario.node[9].veinsmobility totalTime 38.5
scalar Scenario.node[9].veinsmobility stopTime 56.7
scalar Scenario.node[9].veinsmobility minSpeed 0.251506230823
scalar Scenario.node[9].veinsmobility maxSpeed 15.88168331055
scalar Scenario.node[9].veinsmobility totalDistance 428.18588047726
scalar Scenario.node[9].veinsmobility totalCO2Emission 153.97044317152
par Scenario.node[9] typename "\"org.car2x.veins.nodes.Car\""
par Scenario.node[9] applType "\"TraCIDemo11p\""
par Scenario.node[9] nicType "\"Nic80211p\""
par Scenario.node[9] veinsmobilityType "\"org.car2x.veins.modules.mobility.traci.TraCIMobility\""
par Scenario.node[1].appl typename "\"org.car2x.veins.modules.application.traci.TraCIDemo11p\""
par Scenario.node[1].appl headerLength 80bit
attr unit bit
par Scenario.node[1].appl sendBeacons true
par Scenario.node[1].appl beaconLengthBits 256bit
attr unit bit
par Scenario.node[1].appl beaconUserPriority 7
par Scenario.node[1].appl beaconInterval 0.1s
attr unit s
par Scenario.node[1].appl dataLengthBits 1024bit
attr unit bit
par Scenario.node[1].appl dataOnSch false
par Scenario.node[1].appl dataUserPriority 7
par Scenario.node[1].appl avoidBeaconSynchronization true
par Scenario.node[1].appl sendWSA false
par Scenario.node[1].appl wsaLengthBits 250bit
attr unit bit
par Scenario.node[1].appl wsaInterval 1s
attr unit s
scalar Scenario.node[1].appl generatedWSMs 0
scalar Scenario.node[1].appl receivedWSMs 0
scalar Scenario.node[1].appl generatedBSMs 558
scalar Scenario.node[1].appl receivedBSMs 3118
scalar Scenario.node[1].appl generatedWSAs 0
scalar Scenario.node[1].appl receivedWSAs 0
par Scenario.node[1].nic.phy80211p typename "\"org.car2x.veins.modules.phy.PhyLayer80211p\""
par Scenario.node[1].nic.phy80211p recordStats false
par Scenario.node[1].nic.phy80211p usePropagationDelay true
par Scenario.node[1].nic.phy80211p noiseFloor -98dBm
attr unit dBm
par Scenario.node[1].nic.phy80211p useNoiseFloor true
par Scenario.node[1].nic.phy80211p antenna "<root>...</root> at content:1"
par Scenario.node[1].nic.phy80211p antennaOffsetX 0m
attr unit m
par Scenario.node[1].nic.phy80211p antennaOffsetY 0m
attr unit m
par Scenario.node[1].nic.phy80211p antennaOffsetZ 1.895m
attr unit m
par Scenario.node[1].nic.phy80211p antennaOffsetYaw 0rad
attr unit rad
par Scenario.node[1].nic.phy80211p analogueModels "<root>...</root> at /home/vagrant/spe-homework-project/Project/simulations//config_3.xml:2"
par Scenario.node[1].nic.phy80211p decider "<root>...</root> at /home/vagrant/spe-homework-project/Project/simulations//config_3.xml:2"
par Scenario.node[1].nic.phy80211p minPowerLevel -110dBm
attr unit dBm
par Scenario.node[1].nic.phy80211p timeRXToTX 0s
attr unit s
par Scenario.node[1].nic.phy80211p timeRXToSleep 0s
attr unit s
par Scenario.node[1].nic.phy80211p timeTXToRX 0s
attr unit s
par Scenario.node[1].nic.phy80211p timeTXToSleep 0s
attr unit s
par Scenario.node[1].nic.phy80211p timeSleepToRX 0s
attr unit s
par Scenario.node[1].nic.phy80211p timeSleepToTX 0s
attr unit s
par Scenario.node[1].nic.phy80211p initialRadioState 0
par Scenario.node[1].nic.phy80211p radioMinAtt 1
par Scenario.node[1].nic.phy80211p radioMaxAtt 0
par Scenario.node[1].nic.phy80211p nbRadioChannels 1
par Scenario.node[1].nic.phy80211p initialRadioChannel 0
par Scenario.node[1].nic.phy80211p ccaThreshold -65dBm
attr unit dBm
par Scenario.node[1].nic.phy80211p collectCollisionStatistics false
par Scenario.node[1].nic.phy80211p allowTxDuringRx false
scalar Scenario.node[1].nic.phy80211p busyTime 0.0064189247311826
par Scenario.node[1].nic.mac1609_4 typename "\"org.car2x.veins.modules.mac.ieee80211p.Mac1609_4\""
par Scenario.node[1].nic.mac1609_4 notAffectedByHostState false
par Scenario.node[1].nic.mac1609_4 headerLength 0bit
attr unit bit
par Scenario.node[1].nic.mac1609_4 address "\"auto\""
par Scenario.node[1].nic.mac1609_4 useServiceChannel false
par Scenario.node[1].nic.mac1609_4 serviceChannel 1
par Scenario.node[1].nic.mac1609_4 bitrate 6000000bps
attr unit bps
par Scenario.node[1].nic.mac1609_4 syncOffset 0.0003s
attr unit s
par Scenario.node[1].nic.mac1609_4 txPower 20mW
attr unit mW
par Scenario.node[1].nic.mac1609_4 queueSize 0
par Scenario.node[1].nic.mac1609_4 dot11RTSThreshold 12000bit
attr unit bit
par Scenario.node[1].nic.mac1609_4 dot11ShortRetryLimit 7
par Scenario.node[1].nic.mac1609_4 dot11LongRetryLimit 4
par Scenario.node[1].nic.mac1609_4 ackLength 112bit
attr unit bit
par Scenario.node[1].nic.mac1609_4 useAcks false
par Scenario.node[1].nic.mac1609_4 frameErrorRate 0
par Scenario.node[1].nic.mac1609_4 ackErrorRate 0
scalar Scenario.node[1].nic.mac1609_4 ReceivedUnicastPackets 0
scalar Scenario.node[1].nic.mac1609_4 ReceivedBroadcasts 3118
scalar Scenario.node[1].nic.mac1609_4 SentPackets 558
scalar Scenario.node[1].nic.mac1609_4 SentAcknowledgements 0
scalar Scenario.node[1].nic.mac1609_4 RetriesExceeded 0
scalar Scenario.node[1].nic.mac1609_4 SNIRLostPackets 326
scalar Scenario.node[1].nic.mac1609_4 RXTXLostPackets 0
scalar Scenario.node[1].nic.mac1609_4 TotalLostPackets 326
scalar Scenario.node[1].nic.mac1609_4 DroppedPacketsInMac 0
scalar Scenario.node[1].nic.mac1609_4 TooLittleTime 0
scalar Scenario.node[1].nic.mac1609_4 TimesIntoBackoff 612
scalar Scenario.node[1].nic.mac1609_4 SlotsBackoff 904
scalar Scenario.node[1].nic.mac1609_4 NumInternalContention 0
scalar Scenario.node[1].nic.mac1609_4 totalBusyTime 0.416766
scalar Scenario.node[1].nic.mac1609_4 retriesExceeded:count 0
attr recordingmode count
attr source org_car2x_veins_modules_mac_sigRetriesExceeded
scalar Scenario.node[1].nic.mac1609_4 sentAcks:count 0
attr recordingmode count
attr source org_car2x_veins_modules_mac_sigSentAck
scalar Scenario.node[1].nic.mac1609_4 sentPackets:count 558
attr recordingmode count
attr source org_car2x_veins_modules_mac_sigSentPacket
scalar Scenario.node[1].nic.mac1609_4 collisions:count 0
attr recordingmode count
attr source org_car2x_veins_modules_mac_sigCollision
scalar Scenario.node[1].nic.mac1609_4 channelBusy:timeavg 0.0074689247311826
attr recordingmode timeavg
attr source org_car2x_veins_modules_mac_sigChannelBusy
par Scenario.node[1].nic typename "\"org.car2x.veins.modules.nic.Nic80211p\""
par Scenario.node[1].nic connectionManagerName "\"connectionManager\""
par Scenario.node[1].veinsmobility typename "\"org.car2x.veins.modules.mobility.traci.TraCIMobility\""
par Scenario.node[1].veinsmobility notAffectedByHostState true
par Scenario.node[1].veinsmobility x 0
par Scenario.node[1].veinsmobility y 0
par Scenario.node[1].veinsmobility z 1.895
par Scenario.node[1].veinsmobility xOrientation 1
par Scenario.node[1].veinsmobility yOrientation 0
par Scenario.node[1].veinsmobility zOrientation 0
par Scenario.node[1].veinsmobility hostPositionOffset 0m
attr unit m
par Scenario.node[1].veinsmobility setHostSpeed false
par Scenario.node[1].veinsmobility accidentCount 0
par Scenario.node[1].veinsmobility accidentStart 42.0803s
attr unit s
par Scenario.node[1].veinsmobility accidentDuration "uniform(30s, 60s)"
attr unit s
par Scenario.node[1].veinsmobility accidentInterval "uniform(30s, 60s)"
attr unit s
scalar Scenario.node[1].veinsmobility startTime 2.1
scalar Scenario.node[1].veinsmobility totalTime 55.7
scalar Scenario.node[1].veinsmobility stopTime 57.9
scalar Scenario.node[1].veinsmobility minSpeed 0
scalar Scenario.node[1].veinsmobility maxSpeed 14.07161414757
scalar Scenario.node[1].veinsmobility totalDistance 577.1305836544
scalar Scenario.node[1].veinsmobility totalCO2Emission 170.40803217299
par Scenario.node[1] typename "\"org.car2x.veins.nodes.Car\""
par Scenario.node[1] applType "\"TraCIDemo11p\""
par Scenario.node[1] nicType "\"Nic80211p\""
par Scenario.node[1] veinsmobilityType "\"org.car2x.veins.modules.mobility.traci.TraCIMobility\""
par Scenario.node[12].appl typename "\"org.car2x.veins.modules.application.traci.TraCIDemo11p\""
par Scenario.node[12].appl headerLength 80bit
attr unit bit
par Scenario.node[12].appl sendBeacons true
par Scenario.node[12].appl beaconLengthBits 256bit
attr unit bit
par Scenario.node[12].appl beaconUserPriority 7
par Scenario.node[12].appl beaconInterval 0.1s
attr unit s
par Scenario.node[12].appl dataLengthBits 1024bit
attr unit bit
par Scenario.node[12].appl dataOnSch false
par Scenario.node[12].appl dataUserPriority 7
par Scenario.node[12].appl avoidBeaconSynchronization true
par Scenario.node[12].appl sendWSA false
par Scenario.node[12].appl wsaLengthBits 250bit
attr unit bit
par Scenario.node[12].appl wsaInterval 1s
attr unit s
scalar Scenario.node[12].appl generatedWSMs 0
scalar Scenario.node[12].appl receivedWSMs 0
scalar Scenario.node[12].appl generatedBSMs 403
scalar Scenario.node[12].appl receivedBSMs 3457
scalar Scenario.node[12].appl generatedWSAs 0
scalar Scenario.node[12].appl receivedWSAs 0
par Scenario.node[12].nic.phy80211p typename "\"org.car2x.veins.modules.phy.PhyLayer80211p\""
par Scenario.node[12].nic.phy80211p recordStats false
par Scenario.node[12].nic.phy80211p usePropagationDelay true
par Scenario.node[12].nic.phy80211p noiseFloor -98dBm
attr unit dBm
par Scenario.node[12].nic.phy80211p useNoiseFloor true
par Scenario.node[12].nic.phy80211p antenna "<root>...</root> at content:1"
par Scenario.node[12].nic.phy80211p antennaOffsetX 0m
attr unit m
par Scenario.node[12].nic.phy80211p antennaOffsetY 0m
attr unit m
par Scenario.node[12].nic.phy80211p antennaOffsetZ 1.895m
attr unit m
par Scenario.node[12].nic.phy80211p antennaOffsetYaw 0rad
attr unit rad
par Scenario.node[12].nic.phy80211p analogueModels "<root>...</root> at /home/vagrant/spe-homework-project/Project/simulations//config_3.xml:2"
par Scenario.node[12].nic.phy80211p decider "<root>...</root> at /home/vagrant/spe-homework-project/Project/simulations//config_3.xml:2"
par Scenario.node[12].nic.phy80211p minPowerLevel -110dBm
attr unit dBm
par Scenario.node[12].nic.phy80211p timeRXToTX 0s
attr unit s
par Scenario.node[12].nic.phy80211p timeRXToSleep 0s
attr unit s
par Scenario.node[12].nic.phy80211p timeTXToRX 0s
attr unit s
par Scenario.node[12].nic.phy80211p timeTXToSleep 0s
attr unit s
par Scenario.node[12].nic.phy80211p timeSleepToRX 0s
attr unit s
par Scenario.node[12].nic.phy80211p timeSleepToTX 0s
attr unit s
par Scenario.node[12].nic.phy80211p initialRadioState 0
par Scenario.node[12].nic.phy80211p radioMinAtt 1
par Scenario.node[12].nic.phy80211p radioMaxAtt 0
par Scenario.node[12].nic.phy80211p nbRadioChannels 1
par Scenario.node[12].nic.phy80211p initialRadioChannel 0
par Scenario.node[12].nic.phy80211p ccaThreshold -65dBm
attr unit dBm
par Scenario.node[12].nic.phy80211p collectCollisionStatistics false
par Scenario.node[12].nic.phy80211p allowTxDuringRx false
scalar Scenario.node[12].nic.phy80211p busyTime 0.010526451612903
par Scenario.node[12].nic.mac1609_4 typename "\"org.car2x.veins.modules.mac.ieee80211p.Mac1609_4\""
par Scenario.node[12].nic.mac1609_4 notAffectedByHostState false
par Scenario.node[12].nic.mac1609_4 headerLength 0bit
attr unit bit
par Scenario.node[12].nic.mac1609_4 address "\"auto\""
par Scenario.node[12].nic.mac1609_4 useServiceChannel false
par Scenario.node[12].nic.mac1609_4 serviceChannel 1
par Scenario.node[12].nic.mac1609_4 bitrate 6000000bps
attr unit bps
par Scenario.node[12].nic.mac1609_4 syncOffset 0.0003s
attr unit s
par Scenario.node[12].nic.mac1609_4 txPower 20mW
attr unit mW
par Scenario.node[12].nic.mac1609_4 queueSize 0
par Scenario.node[12].nic.mac1609_4 dot11RTSThreshold 12000bit
attr unit bit
par Scenario.node[12].nic.mac1609_4 dot11ShortRetryLimit 7
par Scenario.node[12].nic.mac1609_4 dot11LongRetryLimit 4
par Scenario.node[12].nic.mac1609_4 ackLength 112bit
attr unit bit
par Scenario.node[12].nic.mac1609_4 useAcks false
par Scenario.node[12].nic.mac1609_4 frameErrorRate 0
par Scenario.node[12].nic.mac1609_4 ackErrorRate 0
scalar Scenario.node[12].nic.mac1609_4 ReceivedUnicastPackets 0
scalar Scenario.node[12].nic.mac1609_4 ReceivedBroadcasts 3457
scalar Scenario.node[12].nic.mac1609_4 SentPackets 403
scalar Scenario.node[12].nic.mac1609_4 SentAcknowledgements 0
scalar Scenario.node[12].nic.mac1609_4 RetriesExceeded 0
scalar Scenario.node[12].nic.mac1609_4 SNIRLostPackets 622
scalar Scenario.node[12].nic.mac1609_4 RXTXLostPackets 0
scalar Scenario.node[12].nic.mac1609_4 TotalLostPackets 622
scalar Scenario.node[12].nic.mac1609_4 DroppedPacketsInMac 0
scalar Scenario.node[12].nic.mac1609_4 TooLittleTime 0
scalar Scenario.node[12].nic.mac1609_4 TimesIntoBackoff 403
scalar Scenario.node[12].nic.mac1609_4 SlotsBackoff 609
scalar Scenario.node[12].nic.mac1609_4 NumInternalContention 0
scalar Scenario.node[12].nic.mac1609_4 totalBusyTime 0.460291
scalar Scenario.node[12].nic.mac1609_4 retriesExceeded:count 0
attr recordingmode count
attr source org_car2x_veins_modules_mac_sigRetriesExceeded
scalar Scenario.node[12].nic.mac1609_4 sentAcks:count 0
attr recordingmode count
attr source org_car2x_veins_modules_mac_sigSentAck
scalar Scenario.node[12].nic.mac1609_4 sentPackets:count 403
attr recordingmode count
attr source org_car2x_veins_modules_mac_sigSentPacket
scalar Scenario.node[12].nic.mac1609_4 collisions:count 0
attr recordingmode count
attr source org_car2x_veins_modules_mac_sigCollision
scalar Scenario.node[12].nic.mac1609_4 channelBusy:timeavg 0.011421612903225
attr recordingmode timeavg
attr source org_car2x_veins_modules_mac_sigChannelBusy
par Scenario.node[12].nic typename "\"org.car2x.veins.modules.nic.Nic80211p\""
par Scenario.node[12].nic connectionManagerName "\"connectionManager\""
par Scenario.node[12].veinsmobility typename "\"org.car2x.veins.modules.mobility.traci.TraCIMobility\""
par Scenario.node[12].veinsmobility notAffectedByHostState true
par Scenario.node[12].veinsmobility x 0
par Scenario.node[12].veinsmobility y 0
par Scenario.node[12].veinsmobility z 1.895
par Scenario.node[12].veinsmobility xOrientation 1
par Scenario.node[12].veinsmobility yOrientation 0
par Scenario.node[12].veinsmobility zOrientation 0
par Scenario.node[12].veinsmobility hostPositionOffset 0m
attr unit m
par Scenario.node[12].veinsmobility setHostSpeed false
par Scenario.node[12].veinsmobility accidentCount 0
par Scenario.node[12].veinsmobility accidentStart 46.6343s
attr unit s
par Scenario.node[12].veinsmobility accidentDuration "uniform(30s, 60s)"
attr unit s
par Scenario.node[12].veinsmobility accidentInterval "uniform(30s, 60s)"
attr unit s
scalar Scenario.node[12].veinsmobility startTime 25.3
scalar Scenario.node[12].veinsmobility totalTime 40.2
scalar Scenario.node[12].veinsmobility stopTime 65.6
scalar Scenario.node[12].veinsmobility minSpeed 0.25021538586076
scalar Scenario.node[12].veinsmobility maxSpeed 12.575944822775
scalar Scenario.node[12].veinsmobility totalDistance 419.50575953453
scalar Scenario.node[12].veinsmobility totalCO2Emission 114.42653974545
par Scenario.node[12] typename "\"org.car2x.veins.nodes.Car\""
par Scenario.node[12] applType "\"TraCIDemo11p\""
par Scenario.node[12] nicType "\"Nic80211p\""
par Scenario.node[12] veinsmobilityType "\"org.car2x.veins.modules.mobility.traci.TraCIMobility\""
par Scenario.node[6].appl typename "\"org.car2x.veins.modules.application.traci.TraCIDemo11p\""
par Scenario.node[6].appl headerLength 80bit
attr unit bit
par Scenario.node[6].appl sendBeacons true
par Scenario.node[6].appl beaconLengthBits 256bit
attr unit bit
par Scenario.node[6].appl beaconUserPriority 7
par Scenario.node[6].appl beaconInterval 0.1s
attr unit s
par Scenario.node[6].appl dataLengthBits 1024bit
attr unit bit
par Scenario.node[6].appl dataOnSch false
par Scenario.node[6].appl dataUserPriority 7
par Scenario.node[6].appl avoidBeaconSynchronization true
par Scenario.node[6].appl sendWSA false
par Scenario.node[6].appl wsaLengthBits 250bit
attr unit bit
par Scenario.node[6].appl wsaInterval 1s
attr unit s
scalar Scenario.node[6].appl generatedWSMs 0
scalar Scenario.node[6].appl receivedWSMs 0
scalar Scenario.node[6].appl generatedBSMs 559
scalar Scenario.node[6].appl receivedBSMs 3863
scalar Scenario.node[6].appl generatedWSAs 0
scalar Scenario.node[6].appl receivedWSAs 0
par Scenario.node[6].nic.phy80211p typename "\"org.car2x.veins.modules.phy.PhyLayer80211p\""
par Scenario.node[6].nic.phy80211p recordStats false
par Scenario.node[6].nic.phy80211p usePropagationDelay true
par Scenario.node[6].nic.phy80211p noiseFloor -98dBm
attr unit dBm
par Scenario.node[6].nic.phy80211p useNoiseFloor true
par Scenario.node[6].nic.phy80211p antenna "<root>...</root> at content:1"
par Scenario.node[6].nic.phy80211p antennaOffsetX 0m
attr unit m
par Scenario.node[6].nic.phy80211p antennaOffsetY 0m
attr unit m
par Scenario.node[6].nic.phy80211p antennaOffsetZ 1.895m
attr unit m
par Scenario.node[6].nic.phy80211p antennaOffsetYaw 0rad
attr unit rad
par Scenario.node[6].nic.phy80211p analogueModels "<root>...</root> at /home/vagrant/spe-homework-project/Project/simulations//config_3.xml:2"
par Scenario.node[6].nic.phy80211p decider "<root>...</root> at /home/vagrant/spe-homework-project/Project/simulations//config_3.xml:2"
par Scenario.node[6].nic.phy80211p minPowerLevel -110dBm
attr unit dBm
par Scenario.node[6].nic.phy80211p timeRXToTX 0s
attr unit s
par Scenario.node[6].nic.phy80211p timeRXToSleep 0s
attr unit s
par Scenario.node[6].nic.phy80211p timeTXToRX 0s
attr unit s
par Scenario.node[6].nic.phy80211p timeTXToSleep 0s
attr unit s
par Scenario.node[6].nic.phy80211p timeSleepToRX 0s
attr unit s
par Scenario.node[6].nic.phy80211p timeSleepToTX 0s
attr unit s
par Scenario.node[6].nic.phy80211p initialRadioState 0
par Scenario.node[6].nic.phy80211p radioMinAtt 1
par Scenario.node[6].nic.phy80211p radioMaxAtt 0
par Scenario.node[6].nic.phy80211p nbRadioChannels 1
par Scenario.node[6].nic.phy80211p initialRadioChannel 0
par Scenario.node[6].nic.phy80211p ccaThreshold -65dBm
attr unit dBm
par Scenario.node[6].nic.phy80211p collectCollisionStatistics false
par Scenario.node[6].nic.phy80211p allowTxDuringRx false
scalar Scenario.node[6].nic.phy80211p busyTime 0.0086790697674415
par Scenario.node[6].nic.mac1609_4 typename "\"org.car2x.veins.modules.mac.ieee80211p.Mac1609_4\""
par Scenario.node[6].nic.mac1609_4 notAffectedByHostState false
par Scenario.node[6].nic.mac1609_4 headerLength 0bit
attr unit bit
par Scenario.node[6].nic.mac1609_4 address "\"auto\""
par Scenario.node[6].nic.mac1609_4 useServiceChannel false
par Scenario.node[6].nic.mac1609_4 serviceChannel 1
par Scenario.node[6].nic.mac1609_4 bitrate 6000000bps
attr unit bps
par Scenario.node[6].nic.mac1609_4 syncOffset 0.0003s
attr unit s
par Scenario.node[6].nic.mac1609_4 txPower 20mW
attr unit mW
par Scenario.node[6].nic.mac1609_4 queueSize 0
par Scenario.node[6].nic.mac1609_4 dot11RTSThreshold 12000bit
attr unit bit
par Scenario.node[6].nic.mac1609_4 dot11ShortRetryLimit 7
par Scenario.node[6].nic.mac1609_4 dot11LongRetryLimit 4
par Scenario.node[6].nic.mac1609_4 ackLength 112bit
attr unit bit
par Scenario.node[6].nic.mac1609_4 useAcks false
par Scenario.node[6].nic.mac1609_4 frameErrorRate 0
par Scenario.node[6].nic.mac1609_4 ackErrorRate 0
scalar Scenario.node[6].nic.mac1609_4 ReceivedUnicastPackets 0
scalar Scenario.node[6].nic.mac1609_4 ReceivedBroadcasts 3863
scalar Scenario.node[6].nic.mac1609_4 SentPackets 559
scalar Scenario.node[6].nic.mac1609_4 SentAcknowledgements 0
scalar Scenario.node[6].nic.mac1609_4 RetriesExceeded 0
scalar Scenario.node[6].nic.mac1609_4 SNIRLostPackets 802
scalar Scenario.node[6].nic.mac1609_4 RXTXLostPackets 0
scalar Scenario.node[6].nic.mac1609_4 TotalLostPackets 802
scalar Scenario.node[6].nic.mac1609_4 DroppedPacketsInMac 0
scalar Scenario.node[6].nic.mac1609_4 TooLittleTime 0
scalar Scenario.node[6].nic.mac1609_4 TimesIntoBackoff 559
scalar Scenario.node[6].nic.mac1609_4 SlotsBackoff 827
scalar Scenario.node[6].nic.mac1609_4 NumInternalContention 0
scalar Scenario.node[6].nic.mac1609_4 totalBusyTime 0.533871
scalar Scenario.node[6].nic.mac1609_4 retriesExceeded:count 0
attr recordingmode count
attr source org_car2x_veins_modules_mac_sigRetriesExceeded
scalar Scenario.node[6].nic.mac1609_4 sentAcks:count 0
attr recordingmode count
attr source org_car2x_veins_modules_mac_sigSentAck
scalar Scenario.node[6].nic.mac1609_4 sentPackets:count 559
attr recordingmode count
attr source org_car2x_veins_modules_mac_sigSentPacket
scalar Scenario.node[6].nic.mac1609_4 collisions:count 0
attr recordingmode count
attr source org_car2x_veins_modules_mac_sigCollision
scalar Scenario.node[6].nic.mac1609_4 channelBusy:timeavg 0.0095504651162787
attr recordingmode timeavg
attr source org_car2x_veins_modules_mac_sigChannelBusy
par Scenario.node[6].nic typename "\"org.car2x.veins.modules.nic.Nic80211p\""
par Scenario.node[6].nic connectionManagerName "\"connectionManager\""
par Scenario.node[6].veinsmobility typename "\"org.car2x.veins.modules.mobility.traci.TraCIMobility\""
par Scenario.node[6].veinsmobility notAffectedByHostState true
par Scenario.node[6].veinsmobility x 0
par Scenario.node[6].veinsmobility y 0
par Scenario.node[6].veinsmobility z 1.895
par Scenario.node[6].veinsmobility xOrientation 1
par Scenario.node[6].veinsmobility yOrientation 0
par Scenario.node[6].veinsmobility zOrientation 0
par Scenario.node[6].veinsmobility hostPositionOffset 0m
attr unit m
par Scenario.node[6].veinsmobility setHostSpeed false
par Scenario.node[6].veinsmobility accidentCount 0
par Scenario.node[6].veinsmobility accidentStart 40.9279s
attr unit s
par Scenario.node[6].veinsmobility accidentDuration "uniform(30s, 60s)"
attr unit s
par Scenario.node[6].veinsmobility accidentInterval "uniform(30s, 60s)"
attr unit s
scalar Scenario.node[6].veinsmobility startTime 12.1
scalar Scenario.node[6].veinsmobility totalTime 55.8
scalar Scenario.node[6].veinsmobility stopTime 68
scalar Scenario.node[6].veinsmobility minSpeed 0.25513097851397
scalar Scenario.node[6].veinsmobility maxSpeed 13.834142363173
scalar Scenario.node[6].veinsmobility totalDistance 574.05026774478
scalar Scenario.node[6].veinsmobility totalCO2Emission 165.36380507845
par Scenario.node[6] typename "\"org.car2x.veins.nodes.Car\""
par Scenario.node[6] applType "\"TraCIDemo11p\""
par Scenario.node[6] nicType "\"Nic80211p\""
par Scenario.node[6] veinsmobilityType "\"org.car2x.veins.modules.mobility.traci.TraCIMobility\""
par Scenario.node[22].appl typename "\"org.car2x.veins.modules.application.traci.TraCIDemo11p\""
par Scenario.node[22].appl headerLength 80bit
attr unit bit
par Scenario.node[22].appl sendBeacons true
par Scenario.node[22].appl beaconLengthBits 256bit
attr unit bit
par Scenario.node[22].appl beaconUserPriority 7
par Scenario.node[22].appl beaconInterval 0.1s
attr unit s
par Scenario.node[22].appl dataLengthBits 1024bit
attr unit bit
par Scenario.node[22].appl dataOnSch false
par Scenario.node[22].appl dataUserPriority 7
par Scenario.node[22].appl avoidBeaconSynchronization true
par Scenario.node[22].appl sendWSA false
par Scenario.node[22].appl wsaLengthBits 250bit
attr unit bit
par Scenario.node[22].appl wsaInterval 1s
attr unit s
scalar Scenario.node[22].appl generatedWSMs 0
scalar Scenario.node[22].appl receivedWSMs 0
scalar Scenario.node[22].appl generatedBSMs 247
scalar Scenario.node[22].appl receivedBSMs 1164
scalar Scenario.node[22].appl generatedWSAs 0
scalar Scenario.node[22].appl receivedWSAs 0
par Scenario.node[22].nic.phy80211p typename "\"org.car2x.veins.modules.phy.PhyLayer80211p\""
par Scenario.node[22].nic.phy80211p recordStats false
par Scenario.node[22].nic.phy80211p usePropagationDelay true
par Scenario.node[22].nic.phy80211p noiseFloor -98dBm
attr unit dBm
par Scenario.node[22].nic.phy80211p useNoiseFloor true
par Scenario.node[22].nic.phy80211p antenna "<root>...</root> at content:1"
par Scenario.node[22].nic.phy80211p antennaOffsetX 0m
attr unit m
par Scenario.node[22].nic.phy80211p antennaOffsetY 0m
attr unit m
par Scenario.node[22].nic.phy80211p antennaOffsetZ 1.895m
attr unit m
par Scenario.node[22].nic.phy80211p antennaOffsetYaw 0rad
attr unit rad
par Scenario.node[22].nic.phy80211p analogueModels "<root>...</root> at /home/vagrant/spe-homework-project/Project/simulations//config_3.xml:2"
par Scenario.node[22].nic.phy80211p decider "<root>...</root> at /home/vagrant/spe-homework-project/Project/simulations//config_3.xml:2"
par Scenario.node[22].nic.phy80211p minPowerLevel -110dBm
attr unit dBm
par Scenario.node[22].nic.phy80211p timeRXToTX 0s
attr unit s
par Scenario.node[22].nic.phy80211p timeRXToSleep 0s
attr unit s
par Scenario.node[22].nic.phy80211p timeTXToRX 0s
attr unit s
par Scenario.node[22].nic.phy80211p timeTXToSleep 0s
attr unit s
par Scenario.node[22].nic.phy80211p timeSleepToRX 0s
attr unit s
par Scenario.node[22].nic.phy80211p timeSleepToTX 0s
attr unit s
par Scenario.node[22].nic.phy80211p initialRadioState 0
par Scenario.node[22].nic.phy80211p radioMinAtt 1
par Scenario.node[22].nic.phy80211p radioMaxAtt 0
par Scenario.node[22].nic.phy80211p nbRadioChannels 1
par Scenario.node[22].nic.phy80211p initialRadioChannel 0
par Scenario.node[22].nic.phy80211p ccaThreshold -65dBm
attr unit dBm
par Scenario.node[22].nic.phy80211p collectCollisionStatistics false
par Scenario.node[22].nic.phy80211p allowTxDuringRx false
scalar Scenario.node[22].nic.phy80211p busyTime 0.0057263157894738
par Scenario.node[22].nic.mac1609_4 typename "\"org.car2x.veins.modules.mac.ieee80211p.Mac1609_4\""
par Scenario.node[22].nic.mac1609_4 notAffectedByHostState false
par Scenario.node[22].nic.mac1609_4 headerLength 0bit
attr unit bit
par Scenario.node[22].nic.mac1609_4 address "\"auto\""
par Scenario.node[22].nic.mac1609_4 useServiceChannel false
par Scenario.node[22].nic.mac1609_4 serviceChannel 1
par Scenario.node[22].nic.mac1609_4 bitrate 6000000bps
attr unit bps
par Scenario.node[22].nic.mac1609_4 syncOffset 0.0003s
attr unit s
par Scenario.node[22].nic.mac1609_4 txPower 20mW
attr unit mW
par Scenario.node[22].nic.mac1609_4 queueSize 0
par Scenario.node[22].nic.mac1609_4 dot11RTSThreshold 12000bit
attr unit bit
par Scenario.node[22].nic.mac1609_4 dot11ShortRetryLimit 7
par Scenario.node[22].nic.mac1609_4 dot11LongRetryLimit 4
par Scenario.node[22].nic.mac1609_4 ackLength 112bit
attr unit bit
par Scenario.node[22].nic.mac1609_4 useAcks false
par Scenario.node[22].nic.mac1609_4 frameErrorRate 0
par Scenario.node[22].nic.mac1609_4 ackErrorRate 0
scalar Scenario.node[22].nic.mac1609_4 ReceivedUnicastPackets 0
scalar Scenario.node[22].nic.mac1609_4 ReceivedBroadcasts 1164
scalar Scenario.node[22].nic.mac1609_4 SentPackets 247
scalar Scenario.node[22].nic.mac1609_4 SentAcknowledgements 0
scalar Scenario.node[22].nic.mac1609_4 RetriesExceeded 0
scalar Scenario.node[22].nic.mac1609_4 SNIRLostPackets 196
scalar Scenario.node[22].nic.mac1609_4 RXTXLostPackets 0
scalar Scenario.node[22].nic.mac1609_4 TotalLostPackets 196
scalar Scenario.node[22].nic.mac1609_4 DroppedPacketsInMac 0
scalar Scenario.node[22].nic.mac1609_4 TooLittleTime 0
scalar Scenario.node[22].nic.mac1609_4 TimesIntoBackoff 247
scalar Scenario.node[22].nic.mac1609_4 SlotsBackoff 398
scalar Scenario.node[22].nic.mac1609_4 NumInternalContention 0
scalar Scenario.node[22].nic.mac1609_4 totalBusyTime 0.167375
scalar Scenario.node[22].nic.mac1609_4 retriesExceeded:count 0
attr recordingmode count
attr source org_car2x_veins_modules_mac_sigRetriesExceeded
scalar Scenario.node[22].nic.mac1609_4 sentAcks:count 0
attr recordingmode count
attr source org_car2x_veins_modules_mac_sigSentAck
scalar Scenario.node[22].nic.mac1609_4 sentPackets:count 247
attr recordingmode count
attr source org_car2x_veins_modules_mac_sigSentPacket
scalar Scenario.node[22].nic.mac1609_4 collisions:count 0
attr recordingmode count
attr source org_car2x_veins_modules_mac_sigCollision
scalar Scenario.node[22].nic.mac1609_4 channelBusy:timeavg 0.0067763157894737
attr recordingmode timeavg
attr source org_car2x_veins_modules_mac_sigChannelBusy
par Scenario.node[22].nic typename "\"org.car2x.veins.modules.nic.Nic80211p\""
par Scenario.node[22].nic connectionManagerName "\"connectionManager\""
par Scenario.node[22].veinsmobility typename "\"org.car2x.veins.modules.mobility.traci.TraCIMobility\""
par Scenario.node[22].veinsmobility notAffectedByHostState true
par Scenario.node[22].veinsmobility x 0
par Scenario.node[22].veinsmobility y 0
par Scenario.node[22].veinsmobility z 1.895
par Scenario.node[22].veinsmobility xOrientation 1
par Scenario.node[22].veinsmobility yOrientation 0
par Scenario.node[22].veinsmobility zOrientation 0
par Scenario.node[22].veinsmobility hostPositionOffset 0m
attr unit m
par Scenario.node[22].veinsmobility setHostSpeed false
par Scenario.node[22].veinsmobility accidentCount 0
par Scenario.node[22].veinsmobility accidentStart 59.7667s
attr unit s
par Scenario.node[22].veinsmobility accidentDuration "uniform(30s, 60s)"
attr unit s
par Scenario.node[22].veinsmobility accidentInterval "uniform(30s, 60s)"
attr unit s
scalar Scenario.node[22].veinsmobility startTime 44.1
scalar Scenario.node[22].veinsmobility totalTime 24.6
scalar Scenario.node[22].veinsmobility stopTime 68.8
scalar Scenario.node[22].veinsmobility minSpeed 0.25729001301876
scalar Scenario.node[22].veinsmobility maxSpeed 15.22733393454
scalar Scenario.node[22].veinsmobility totalDistance 280.37745816119
scalar Scenario.node[22].veinsmobility totalCO2Emission 97.69903061562
par Scenario.node[22] typename "\"org.car2x.veins.nodes.Car\""
par Scenario.node[22] applType "\"TraCIDemo11p\""
par Scenario.node[22] nicType "\"Nic80211p\""
par Scenario.node[22] veinsmobilityType "\"org.car2x.veins.modules.mobility.traci.TraCIMobility\""
par Scenario.node[4].appl typename "\"org.car2x.veins.modules.application.traci.TraCIDemo11p\""
par Scenario.node[4].appl headerLength 80bit
attr unit bit
par Scenario.node[4].appl sendBeacons true
par Scenario.node[4].appl beaconLengthBits 256bit
attr unit bit
par Scenario.node[4].appl beaconUserPriority 7
par Scenario.node[4].appl beaconInterval 0.1s
attr unit s
par Scenario.node[4].appl dataLengthBits 1024bit
attr unit bit
par Scenario.node[4].appl dataOnSch false
par Scenario.node[4].appl dataUserPriority 7
par Scenario.node[4].appl avoidBeaconSynchronization true
par Scenario.node[4].appl sendWSA false
par Scenario.node[4].appl wsaLengthBits 250bit
attr unit bit
par Scenario.node[4].appl wsaInterval 1s
attr unit s
scalar Scenario.node[4].appl generatedWSMs 0
scalar Scenario.node[4].appl receivedWSMs 0
scalar Scenario.node[4].appl generatedBSMs 612
scalar Scenario.node[4].appl receivedBSMs 3096
scalar Scenario.node[4].appl generatedWSAs 0
scalar Scenario.node[4].appl receivedWSAs 0
par Scenario.node[4].nic.phy80211p typename "\"org.car2x.veins.modules.phy.PhyLayer80211p\""
par Scenario.node[4].nic.phy80211p recordStats false
par Scenario.node[4].nic.phy80211p usePropagationDelay true
par Scenario.node[4].nic.phy80211p noiseFloor -98dBm
attr unit dBm
par Scenario.node[4].nic.phy80211p useNoiseFloor true
par Scenario.node[4].nic.phy80211p antenna "<root>...</root> at content:1"
par Scenario.node[4].nic.phy80211p antennaOffsetX 0m
attr unit m
par Scenario.node[4].nic.phy80211p antennaOffsetY 0m
attr unit m
par Scenario.node[4].nic.phy80211p antennaOffsetZ 1.895m
attr unit m
par Scenario.node[4].nic.phy80211p antennaOffsetYaw 0rad
attr unit rad
par Scenario.node[4].nic.phy80211p analogueModels "<root>...</root> at /home/vagrant/spe-homework-project/Project/simulations//config_3.xml:2"
par Scenario.node[4].nic.phy80211p decider "<root>...</root> at /home/vagrant/spe-homework-project/Project/simulations//config_3.xml:2"
par Scenario.node[4].nic.phy80211p minPowerLevel -110dBm
attr unit dBm
par Scenario.node[4].nic.phy80211p timeRXToTX 0s
attr unit s
par Scenario.node[4].nic.phy80211p timeRXToSleep 0s
attr unit s
par Scenario.node[4].nic.phy80211p timeTXToRX 0s
attr unit s
par Scenario.node[4].nic.phy80211p timeTXToSleep 0s
attr unit s
par Scenario.node[4].nic.phy80211p timeSleepToRX 0s
attr unit s
par Scenario.node[4].nic.phy80211p timeSleepToTX 0s
attr unit s
par Scenario.node[4].nic.phy80211p initialRadioState 0
par Scenario.node[4].nic.phy80211p radioMinAtt 1
par Scenario.node[4].nic.phy80211p radioMaxAtt 0
par Scenario.node[4].nic.phy80211p nbRadioChannels 1
par Scenario.node[4].nic.phy80211p initialRadioChannel 0
par Scenario.node[4].nic.phy80211p ccaThreshold -65dBm
attr unit dBm
par Scenario.node[4].nic.phy80211p collectCollisionStatistics false
par Scenario.node[4].nic.phy80211p allowTxDuringRx false
scalar Scenario.node[4].nic.phy80211p busyTime 0.0059307189542482
par Scenario.node[4].nic.mac1609_4 typename "\"org.car2x.veins.modules.mac.ieee80211p.Mac1609_4\""
par Scenario.node[4].nic.mac1609_4 notAffectedByHostState false
par Scenario.node[4].nic.mac1609_4 headerLength 0bit
attr unit bit
par Scenario.node[4].nic.mac1609_4 address "\"auto\""
par Scenario.node[4].nic.mac1609_4 useServiceChannel false
par Scenario.node[4].nic.mac1609_4 serviceChannel 1
par Scenario.node[4].nic.mac1609_4 bitrate 6000000bps
attr unit bps
par Scenario.node[4].nic.mac1609_4 syncOffset 0.0003s
attr unit s
par Scenario.node[4].nic.mac1609_4 txPower 20mW
attr unit mW
par Scenario.node[4].nic.mac1609_4 queueSize 0
par Scenario.node[4].nic.mac1609_4 dot11RTSThreshold 12000bit
attr unit bit
par Scenario.node[4].nic.mac1609_4 dot11ShortRetryLimit 7
par Scenario.node[4].nic.mac1609_4 dot11LongRetryLimit 4
par Scenario.node[4].nic.mac1609_4 ackLength 112bit
attr unit bit
par Scenario.node[4].nic.mac1609_4 useAcks false
par Scenario.node[4].nic.mac1609_4 frameErrorRate 0
par Scenario.node[4].nic.mac1609_4 ackErrorRate 0
scalar Scenario.node[4].nic.mac1609_4 ReceivedUnicastPackets 0
scalar Scenario.node[4].nic.mac1609_4 ReceivedBroadcasts 3096
scalar Scenario.node[4].nic.mac1609_4 SentPackets 612
scalar Scenario.node[4].nic.mac1609_4 SentAcknowledgements 0
scalar Scenario.node[4].nic.mac1609_4 RetriesExceeded 0
scalar Scenario.node[4].nic.mac1609_4 SNIRLostPackets 394
scalar Scenario.node[4].nic.mac1609_4 RXTXLostPackets 0
scalar Scenario.node[4].nic.mac1609_4 TotalLostPackets 394
scalar Scenario.node[4].nic.mac1609_4 DroppedPacketsInMac 0
scalar Scenario.node[4].nic.mac1609_4 TooLittleTime 0
scalar Scenario.node[4].nic.mac1609_4 TimesIntoBackoff 612
scalar Scenario.node[4].nic.mac1609_4 SlotsBackoff 922
scalar Scenario.node[4].nic.mac1609_4 NumInternalContention 0
scalar Scenario.node[4].nic.mac1609_4 totalBusyTime 0.42566
scalar Scenario.node[4].nic.mac1609_4 retriesExceeded:count 0
attr recordingmode count
attr source org_car2x_veins_modules_mac_sigRetriesExceeded
scalar Scenario.node[4].nic.mac1609_4 sentAcks:count 0
attr recordingmode count
attr source org_car2x_veins_modules_mac_sigSentAck
scalar Scenario.node[4].nic.mac1609_4 sentPackets:count 612
attr recordingmode count
attr source org_car2x_veins_modules_mac_sigSentPacket
scalar Scenario.node[4].nic.mac1609_4 collisions:count 0
attr recordingmode count
attr source org_car2x_veins_modules_mac_sigCollision
scalar Scenario.node[4].nic.mac1609_4 channelBusy:timeavg 0.0069552287581697
attr recordingmode timeavg
attr source org_car2x_veins_modules_mac_sigChannelBusy
par Scenario.node[4].nic typename "\"org.car2x.veins.modules.nic.Nic80211p\""
par Scenario.node[4].nic connectionManagerName "\"connectionManager\""
par Scenario.node[4].veinsmobility typename "\"org.car2x.veins.modules.mobility.traci.TraCIMobility\""
par Scenario.node[4].veinsmobility notAffectedByHostState true
par Scenario.node[4].veinsmobility x 0
par Scenario.node[4].veinsmobility y 0
par Scenario.node[4].veinsmobility z 1.895
par Scenario.node[4].veinsmobility xOrientation 1
par Scenario.node[4].veinsmobility yOrientation 0
par Scenario.node[4].veinsmobility zOrientation 0
par Scenario.node[4].veinsmobility hostPositionOffset 0m
attr unit m
par Scenario.node[4].veinsmobility setHostSpeed false
par Scenario.node[4].veinsmobility accidentCount 0
par Scenario.node[4].veinsmobility accidentStart 48.9366s
attr unit s
par Scenario.node[4].veinsmobility accidentDuration "uniform(30s, 60s)"
attr unit s
par Scenario.node[4].veinsmobility accidentInterval "uniform(30s, 60s)"
attr unit s
scalar Scenario.node[4].veinsmobility startTime 8.1
scalar Scenario.node[4].veinsmobility totalTime 61.1
scalar Scenario.node[4].veinsmobility stopTime 69.3
scalar Scenario.node[4].veinsmobility minSpeed 0.24868838627916
scalar Scenario.node[4].veinsmobility maxSpeed 11.66893393824
scalar Scenario.node[4].veinsmobility totalDistance 564.54683152843
scalar Scenario.node[4].veinsmobility totalCO2Emission 167.71142653567
par Scenario.node[4] typename "\"org.car2x.veins.nodes.Car\""
par Scenario.node[4] applType "\"TraCIDemo11p\""
par Scenario.node[4] nicType "\"Nic80211p\""
par Scenario.node[4] veinsmobilityType "\"org.car2x.veins.modules.mobility.traci.TraCIMobility\""
par Scenario.node[25].appl typename "\"org.car2x.veins.modules.application.traci.TraCIDemo11p\""
par Scenario.node[25].appl headerLength 80bit
attr unit bit
par Scenario.node[25].appl sendBeacons true
par Scenario.node[25].appl beaconLengthBits 256bit
attr unit bit
par Scenario.node[25].appl beaconUserPriority 7
par Scenario.node[25].appl beaconInterval 0.1s
attr unit s
par Scenario.node[25].appl dataLengthBits 1024bit
attr unit bit
par Scenario.node[25].appl dataOnSch false
par Scenario.node[25].appl dataUserPriority 7
par Scenario.node[25].appl avoidBeaconSynchronization true
par Scenario.node[25].appl sendWSA false
par Scenario.node[25].appl wsaLengthBits 250bit
attr unit bit
par Scenario.node[25].appl wsaInterval 1s
attr unit s
scalar Scenario.node[25].appl generatedWSMs 0
scalar Scenario.node[25].appl receivedWSMs 0
scalar Scenario.node[25].appl generatedBSMs 241
scalar Scenario.node[25].appl receivedBSMs 1974
scalar Scenario.node[25].appl generatedWSAs 0
scalar Scenario.node[25].appl receivedWSAs 0
par Scenario.node[25].nic.phy80211p typename "\"org.car2x.veins.modules.phy.PhyLayer80211p\""
par Scenario.node[25].nic.phy80211p recordStats false
par Scenario.node[25].nic.phy80211p usePropagationDelay true
par Scenario.node[25].nic.phy80211p noiseFloor -98dBm
attr unit dBm
par Scenario.node[25].nic.phy80211p useNoiseFloor true
par Scenario.node[25].nic.phy80211p antenna "<root>...</root> at content:1"
par Scenario.node[25].nic.phy80211p antennaOffsetX 0m
attr unit m
par Scenario.node[25].nic.phy80211p antennaOffsetY 0m
attr unit m
par Scenario.node[25].nic.phy80211p antennaOffsetZ 1.895m
attr unit m
par Scenario.node[25].nic.phy80211p antennaOffsetYaw 0rad
attr unit rad
par Scenario.node[25].nic.phy80211p analogueModels "<root>...</root> at /home/vagrant/spe-homework-project/Project/simulations//config_3.xml:2"
par Scenario.node[25].nic.phy80211p decider "<root>...</root> at /home/vagrant/spe-homework-project/Project/simulations//config_3.xml:2"
par Scenario.node[25].nic.phy80211p minPowerLevel -110dBm
attr unit dBm
par Scenario.node[25].nic.phy80211p timeRXToTX 0s
attr unit s
par Scenario.node[25].nic.phy80211p timeRXToSleep 0s
attr unit s
par Scenario.node[25].nic.phy80211p timeTXToRX 0s
attr unit s
par Scenario.node[25].nic.phy80211p timeTXToSleep 0s
attr unit s
par Scenario.node[25].nic.phy80211p timeSleepToRX 0s
attr unit s
par Scenario.node[25].nic.phy80211p timeSleepToTX 0s
attr unit s
par Scenario.node[25].nic.phy80211p initialRadioState 0
par Scenario.node[25].nic.phy80211p radioMinAtt 1
par Scenario.node[25].nic.phy80211p radioMaxAtt 0
par Scenario.node[25].nic.phy80211p nbRadioChannels 1
par Scenario.node[25].nic.phy80211p initialRadioChannel 0
par Scenario.node[25].nic.phy80211p ccaThreshold -65dBm
attr unit dBm
par Scenario.node[25].nic.phy80211p collectCollisionStatistics false
par Scenario.node[25].nic.phy80211p allowTxDuringRx false
scalar Scenario.node[25].nic.phy80211p busyTime 0.0097224896265559
par Scenario.node[25].nic.mac1609_4 typename "\"org.car2x.veins.modules.mac.ieee80211p.Mac1609_4\""
par Scenario.node[25].nic.mac1609_4 notAffectedByHostState false
par Scenario.node[25].nic.mac1609_4 headerLength 0bit
attr unit bit
par Scenario.node[25].nic.mac1609_4 address "\"auto\""
par Scenario.node[25].nic.mac1609_4 useServiceChannel false
par Scenario.node[25].nic.mac1609_4 serviceChannel 1
par Scenario.node[25].nic.mac1609_4 bitrate 6000000bps
attr unit bps
par Scenario.node[25].nic.mac1609_4 syncOffset 0.0003s
attr unit s
par Scenario.node[25].nic.mac1609_4 txPower 20mW
attr unit mW
par Scenario.node[25].nic.mac1609_4 queueSize 0
par Scenario.node[25].nic.mac1609_4 dot11RTSThreshold 12000bit
attr unit bit
par Scenario.node[25].nic.mac1609_4 dot11ShortRetryLimit 7
par Scenario.node[25].nic.mac1609_4 dot11LongRetryLimit 4
par Scenario.node[25].nic.mac1609_4 ackLength 112bit
attr unit bit
par Scenario.node[25].nic.mac1609_4 useAcks false
par Scenario.node[25].nic.mac1609_4 frameErrorRate 0
par Scenario.node[25].nic.mac1609_4 ackErrorRate 0
scalar Scenario.node[25].nic.mac1609_4 ReceivedUnicastPackets 0
scalar Scenario.node[25].nic.mac1609_4 ReceivedBroadcasts 1974
scalar Scenario.node[25].nic.mac1609_4 SentPackets 241
scalar Scenario.node[25].nic.mac1609_4 SentAcknowledgements 0
scalar Scenario.node[25].nic.mac1609_4 RetriesExceeded 0
scalar Scenario.node[25].nic.mac1609_4 SNIRLostPackets 279
scalar Scenario.node[25].nic.mac1609_4 RXTXLostPackets 0
scalar Scenario.node[25].nic.mac1609_4 TotalLostPackets 279
scalar Scenario.node[25].nic.mac1609_4 DroppedPacketsInMac 0
scalar Scenario.node[25].nic.mac1609_4 TooLittleTime 0
scalar Scenario.node[25].nic.mac1609_4 TimesIntoBackoff 241
scalar Scenario.node[25].nic.mac1609_4 SlotsBackoff 361
scalar Scenario.node[25].nic.mac1609_4 NumInternalContention 0
scalar Scenario.node[25].nic.mac1609_4 totalBusyTime 0.259617
scalar Scenario.node[25].nic.mac1609_4 retriesExceeded:count 0
attr recordingmode count
attr source org_car2x_veins_modules_mac_sigRetriesExceeded
scalar Scenario.node[25].nic.mac1609_4 sentAcks:count 0
attr recordingmode count
attr source org_car2x_veins_modules_mac_sigSentAck
scalar Scenario.node[25].nic.mac1609_4 sentPackets:count 241
attr recordingmode count
attr source org_car2x_veins_modules_mac_sigSentPacket
scalar Scenario.node[25].nic.mac1609_4 collisions:count 0
attr recordingmode count
attr source org_car2x_veins_modules_mac_sigCollision
scalar Scenario.node[25].nic.mac1609_4 channelBusy:timeavg 0.010772489626556
attr recordingmode timeavg
attr source org_car2x_veins_modules_mac_sigChannelBusy
par Scenario.node[25].nic typename "\"org.car2x.veins.modules.nic.Nic80211p\""
[...]
attr unit dBm
par Scenario.node[46].nic.phy80211p timeRXToTX 0s
attr unit s
par Scenario.node[46].nic.phy80211p timeRXToSleep 0s
attr unit s
par Scenario.node[46].nic.phy80211p timeTXToRX 0s
attr unit s
par Scenario.node[46].nic.phy80211p timeTXToSleep 0s
attr unit s
par Scenario.node[46].nic.phy80211p timeSleepToRX 0s
attr unit s
par Scenario.node[46].nic.phy80211p timeSleepToTX 0s
attr unit s
par Scenario.node[46].nic.phy80211p initialRadioState 0
par Scenario.node[46].nic.phy80211p radioMinAtt 1
par Scenario.node[46].nic.phy80211p radioMaxAtt 0
par Scenario.node[46].nic.phy80211p nbRadioChannels 1
par Scenario.node[46].nic.phy80211p initialRadioChannel 0
par Scenario.node[46].nic.phy80211p ccaThreshold -65dBm
attr unit dBm
par Scenario.node[46].nic.phy80211p collectCollisionStatistics false
par Scenario.node[46].nic.phy80211p allowTxDuringRx false
scalar Scenario.node[46].nic.phy80211p busyTime 0.013559245283019
par Scenario.node[46].nic.mac1609_4 typename "\"org.car2x.veins.modules.mac.ieee80211p.Mac1609_4\""
par Scenario.node[46].nic.mac1609_4 notAffectedByHostState false
par Scenario.node[46].nic.mac1609_4 headerLength 0bit
attr unit bit
par Scenario.node[46].nic.mac1609_4 address "\"auto\""
par Scenario.node[46].nic.mac1609_4 useServiceChannel false
par Scenario.node[46].nic.mac1609_4 serviceChannel 1
par Scenario.node[46].nic.mac1609_4 bitrate 6000000bps
attr unit bps
par Scenario.node[46].nic.mac1609_4 syncOffset 0.0003s
attr unit s
par Scenario.node[46].nic.mac1609_4 txPower 20mW
attr unit mW
par Scenario.node[46].nic.mac1609_4 queueSize 0
par Scenario.node[46].nic.mac1609_4 dot11RTSThreshold 12000bit
attr unit bit
par Scenario.node[46].nic.mac1609_4 dot11ShortRetryLimit 7
par Scenario.node[46].nic.mac1609_4 dot11LongRetryLimit 4
par Scenario.node[46].nic.mac1609_4 ackLength 112bit
attr unit bit
par Scenario.node[46].nic.mac1609_4 useAcks false
par Scenario.node[46].nic.mac1609_4 frameErrorRate 0
par Scenario.node[46].nic.mac1609_4 ackErrorRate 0
scalar Scenario.node[46].nic.mac1609_4 ReceivedUnicastPackets 0
scalar Scenario.node[46].nic.mac1609_4 ReceivedBroadcasts 641
scalar Scenario.node[46].nic.mac1609_4 SentPackets 53
scalar Scenario.node[46].nic.mac1609_4 SentAcknowledgements 0
scalar Scenario.node[46].nic.mac1609_4 RetriesExceeded 0
scalar Scenario.node[46].nic.mac1609_4 SNIRLostPackets 50
scalar Scenario.node[46].nic.mac1609_4 RXTXLostPackets 0
scalar Scenario.node[46].nic.mac1609_4 TotalLostPackets 50
scalar Scenario.node[46].nic.mac1609_4 DroppedPacketsInMac 0
scalar Scenario.node[46].nic.mac1609_4 TooLittleTime 0
scalar Scenario.node[46].nic.mac1609_4 TimesIntoBackoff 53
scalar Scenario.node[46].nic.mac1609_4 SlotsBackoff 84
scalar Scenario.node[46].nic.mac1609_4 NumInternalContention 0
scalar Scenario.node[46].nic.mac1609_4 totalBusyTime 0.077429
scalar Scenario.node[46].nic.mac1609_4 retriesExceeded:count 0
attr recordingmode count
attr source org_car2x_veins_modules_mac_sigRetriesExceeded
scalar Scenario.node[46].nic.mac1609_4 sentAcks:count 0
attr recordingmode count
attr source org_car2x_veins_modules_mac_sigSentAck
scalar Scenario.node[46].nic.mac1609_4 sentPackets:count 53
attr recordingmode count
attr source org_car2x_veins_modules_mac_sigSentPacket
scalar Scenario.node[46].nic.mac1609_4 collisions:count 0
attr recordingmode count
attr source org_car2x_veins_modules_mac_sigCollision
scalar Scenario.node[46].nic.mac1609_4 channelBusy:timeavg 0.014609245283019
attr recordingmode timeavg
attr source org_car2x_veins_modules_mac_sigChannelBusy
par Scenario.node[46].nic typename "\"org.car2x.veins.modules.nic.Nic80211p\""
par Scenario.node[46].nic connectionManagerName "\"connectionManager\""
par Scenario.node[46].veinsmobility typename "\"org.car2x.veins.modules.mobility.traci.TraCIMobility\""
par Scenario.node[46].veinsmobility notAffectedByHostState true
par Scenario.node[46].veinsmobility x 0
par Scenario.node[46].veinsmobility y 0
par Scenario.node[46].veinsmobility z 1.895
par Scenario.node[46].veinsmobility xOrientation 1
par Scenario.node[46].veinsmobility yOrientation 0
par Scenario.node[46].veinsmobility zOrientation 0
par Scenario.node[46].veinsmobility hostPositionOffset 0m
attr unit m
par Scenario.node[46].veinsmobility setHostSpeed false
par Scenario.node[46].veinsmobility accidentCount 0
par Scenario.node[46].veinsmobility accidentStart 33.0875s
attr unit s
par Scenario.node[46].veinsmobility accidentDuration "uniform(30s, 60s)"
attr unit s
par Scenario.node[46].veinsmobility accidentInterval "uniform(30s, 60s)"
attr unit s
scalar Scenario.node[46].veinsmobility startTime 94.7
scalar Scenario.node[46].veinsmobility totalTime 5.3
scalar Scenario.node[46].veinsmobility stopTime 100
scalar Scenario.node[46].veinsmobility minSpeed 0.24889594602911
scalar Scenario.node[46].veinsmobility maxSpeed 10.733717014868
scalar Scenario.node[46].veinsmobility totalDistance 29.74376883003
scalar Scenario.node[46].veinsmobility totalCO2Emission 21.510134071545
par Scenario.node[46] typename "\"org.car2x.veins.nodes.Car\""
par Scenario.node[46] applType "\"TraCIDemo11p\""
par Scenario.node[46] nicType "\"Nic80211p\""
par Scenario.node[46] veinsmobilityType "\"org.car2x.veins.modules.mobility.traci.TraCIMobility\""
par Scenario.node[47].appl typename "\"org.car2x.veins.modules.application.traci.TraCIDemo11p\""
par Scenario.node[47].appl headerLength 80bit
attr unit bit
par Scenario.node[47].appl sendBeacons true
par Scenario.node[47].appl beaconLengthBits 256bit
attr unit bit
par Scenario.node[47].appl beaconUserPriority 7
par Scenario.node[47].appl beaconInterval 0.1s
attr unit s
par Scenario.node[47].appl dataLengthBits 1024bit
attr unit bit
par Scenario.node[47].appl dataOnSch false
par Scenario.node[47].appl dataUserPriority 7
par Scenario.node[47].appl avoidBeaconSynchronization true
par Scenario.node[47].appl sendWSA false
par Scenario.node[47].appl wsaLengthBits 250bit
attr unit bit
par Scenario.node[47].appl wsaInterval 1s
attr unit s
scalar Scenario.node[47].appl generatedWSMs 0
scalar Scenario.node[47].appl receivedWSMs 0
scalar Scenario.node[47].appl generatedBSMs 39
scalar Scenario.node[47].appl receivedBSMs 382
scalar Scenario.node[47].appl generatedWSAs 0
scalar Scenario.node[47].appl receivedWSAs 0
par Scenario.node[47].nic.phy80211p typename "\"org.car2x.veins.modules.phy.PhyLayer80211p\""
par Scenario.node[47].nic.phy80211p recordStats false
par Scenario.node[47].nic.phy80211p usePropagationDelay true
par Scenario.node[47].nic.phy80211p noiseFloor -98dBm
attr unit dBm
par Scenario.node[47].nic.phy80211p useNoiseFloor true
par Scenario.node[47].nic.phy80211p antenna "<root>...</root> at content:1"
par Scenario.node[47].nic.phy80211p antennaOffsetX 0m
attr unit m
par Scenario.node[47].nic.phy80211p antennaOffsetY 0m
attr unit m
par Scenario.node[47].nic.phy80211p antennaOffsetZ 1.895m
attr unit m
par Scenario.node[47].nic.phy80211p antennaOffsetYaw 0rad
attr unit rad
par Scenario.node[47].nic.phy80211p analogueModels "<root>...</root> at /home/vagrant/spe-homework-project/Project/simulations//config_3.xml:2"
par Scenario.node[47].nic.phy80211p decider "<root>...</root> at /home/vagrant/spe-homework-project/Project/simulations//config_3.xml:2"
par Scenario.node[47].nic.phy80211p minPowerLevel -110dBm
attr unit dBm
par Scenario.node[47].nic.phy80211p timeRXToTX 0s
attr unit s
par Scenario.node[47].nic.phy80211p timeRXToSleep 0s
attr unit s
par Scenario.node[47].nic.phy80211p timeTXToRX 0s
attr unit s
par Scenario.node[47].nic.phy80211p timeTXToSleep 0s
attr unit s
par Scenario.node[47].nic.phy80211p timeSleepToRX 0s
attr unit s
par Scenario.node[47].nic.phy80211p timeSleepToTX 0s
attr unit s
par Scenario.node[47].nic.phy80211p initialRadioState 0
par Scenario.node[47].nic.phy80211p radioMinAtt 1
par Scenario.node[47].nic.phy80211p radioMaxAtt 0
par Scenario.node[47].nic.phy80211p nbRadioChannels 1
par Scenario.node[47].nic.phy80211p initialRadioChannel 0
par Scenario.node[47].nic.phy80211p ccaThreshold -65dBm
attr unit dBm
par Scenario.node[47].nic.phy80211p collectCollisionStatistics false
par Scenario.node[47].nic.phy80211p allowTxDuringRx false
scalar Scenario.node[47].nic.phy80211p busyTime 0.010826666666667
par Scenario.node[47].nic.mac1609_4 typename "\"org.car2x.veins.modules.mac.ieee80211p.Mac1609_4\""
par Scenario.node[47].nic.mac1609_4 notAffectedByHostState false
par Scenario.node[47].nic.mac1609_4 headerLength 0bit
attr unit bit
par Scenario.node[47].nic.mac1609_4 address "\"auto\""
par Scenario.node[47].nic.mac1609_4 useServiceChannel false
par Scenario.node[47].nic.mac1609_4 serviceChannel 1
par Scenario.node[47].nic.mac1609_4 bitrate 6000000bps
attr unit bps
par Scenario.node[47].nic.mac1609_4 syncOffset 0.0003s
attr unit s
par Scenario.node[47].nic.mac1609_4 txPower 20mW
attr unit mW
par Scenario.node[47].nic.mac1609_4 queueSize 0
par Scenario.node[47].nic.mac1609_4 dot11RTSThreshold 12000bit
attr unit bit
par Scenario.node[47].nic.mac1609_4 dot11ShortRetryLimit 7
par Scenario.node[47].nic.mac1609_4 dot11LongRetryLimit 4
par Scenario.node[47].nic.mac1609_4 ackLength 112bit
attr unit bit
par Scenario.node[47].nic.mac1609_4 useAcks false
par Scenario.node[47].nic.mac1609_4 frameErrorRate 0
par Scenario.node[47].nic.mac1609_4 ackErrorRate 0
scalar Scenario.node[47].nic.mac1609_4 ReceivedUnicastPackets 0
scalar Scenario.node[47].nic.mac1609_4 ReceivedBroadcasts 382
scalar Scenario.node[47].nic.mac1609_4 SentPackets 39
scalar Scenario.node[47].nic.mac1609_4 SentAcknowledgements 0
scalar Scenario.node[47].nic.mac1609_4 RetriesExceeded 0
scalar Scenario.node[47].nic.mac1609_4 SNIRLostPackets 24
scalar Scenario.node[47].nic.mac1609_4 RXTXLostPackets 0
scalar Scenario.node[47].nic.mac1609_4 TotalLostPackets 24
scalar Scenario.node[47].nic.mac1609_4 DroppedPacketsInMac 0
scalar Scenario.node[47].nic.mac1609_4 TooLittleTime 0
scalar Scenario.node[47].nic.mac1609_4 TimesIntoBackoff 39
scalar Scenario.node[47].nic.mac1609_4 SlotsBackoff 52
scalar Scenario.node[47].nic.mac1609_4 NumInternalContention 0
scalar Scenario.node[47].nic.mac1609_4 totalBusyTime 0.046319
scalar Scenario.node[47].nic.mac1609_4 retriesExceeded:count 0
attr recordingmode count
attr source org_car2x_veins_modules_mac_sigRetriesExceeded
scalar Scenario.node[47].nic.mac1609_4 sentAcks:count 0
attr recordingmode count
attr source org_car2x_veins_modules_mac_sigSentAck
scalar Scenario.node[47].nic.mac1609_4 sentPackets:count 39
attr recordingmode count
attr source org_car2x_veins_modules_mac_sigSentPacket
scalar Scenario.node[47].nic.mac1609_4 collisions:count 0
attr recordingmode count
attr source org_car2x_veins_modules_mac_sigCollision
scalar Scenario.node[47].nic.mac1609_4 channelBusy:timeavg 0.011876666666667
attr recordingmode timeavg
attr source org_car2x_veins_modules_mac_sigChannelBusy
par Scenario.node[47].nic typename "\"org.car2x.veins.modules.nic.Nic80211p\""
par Scenario.node[47].nic connectionManagerName "\"connectionManager\""
par Scenario.node[47].veinsmobility typename "\"org.car2x.veins.modules.mobility.traci.TraCIMobility\""
par Scenario.node[47].veinsmobility notAffectedByHostState true
par Scenario.node[47].veinsmobility x 0
par Scenario.node[47].veinsmobility y 0
par Scenario.node[47].veinsmobility z 1.895
par Scenario.node[47].veinsmobility xOrientation 1
par Scenario.node[47].veinsmobility yOrientation 0
par Scenario.node[47].veinsmobility zOrientation 0
par Scenario.node[47].veinsmobility hostPositionOffset 0m
attr unit m
par Scenario.node[47].veinsmobility setHostSpeed false
par Scenario.node[47].veinsmobility accidentCount 0
par Scenario.node[47].veinsmobility accidentStart 50.7368s
attr unit s
par Scenario.node[47].veinsmobility accidentDuration "uniform(30s, 60s)"
attr unit s
par Scenario.node[47].veinsmobility accidentInterval "uniform(30s, 60s)"
attr unit s
scalar Scenario.node[47].veinsmobility startTime 96.1
scalar Scenario.node[47].veinsmobility totalTime 3.9
scalar Scenario.node[47].veinsmobility stopTime 100
scalar Scenario.node[47].veinsmobility minSpeed 0.25266775088222
scalar Scenario.node[47].veinsmobility maxSpeed 8.0319900524412
scalar Scenario.node[47].veinsmobility totalDistance 16.536413322287
scalar Scenario.node[47].veinsmobility totalCO2Emission 13.028203234526
par Scenario.node[47] typename "\"org.car2x.veins.nodes.Car\""
par Scenario.node[47] applType "\"TraCIDemo11p\""
par Scenario.node[47] nicType "\"Nic80211p\""
par Scenario.node[47] veinsmobilityType "\"org.car2x.veins.modules.mobility.traci.TraCIMobility\""
par Scenario.node[48].appl typename "\"org.car2x.veins.modules.application.traci.TraCIDemo11p\""
par Scenario.node[48].appl headerLength 80bit
attr unit bit
par Scenario.node[48].appl sendBeacons true
par Scenario.node[48].appl beaconLengthBits 256bit
attr unit bit
par Scenario.node[48].appl beaconUserPriority 7
par Scenario.node[48].appl beaconInterval 0.1s
attr unit s
par Scenario.node[48].appl dataLengthBits 1024bit
attr unit bit
par Scenario.node[48].appl dataOnSch false
par Scenario.node[48].appl dataUserPriority 7
par Scenario.node[48].appl avoidBeaconSynchronization true
par Scenario.node[48].appl sendWSA false
par Scenario.node[48].appl wsaLengthBits 250bit
attr unit bit
par Scenario.node[48].appl wsaInterval 1s
attr unit s
scalar Scenario.node[48].appl generatedWSMs 0
scalar Scenario.node[48].appl receivedWSMs 0
scalar Scenario.node[48].appl generatedBSMs 27
scalar Scenario.node[48].appl receivedBSMs 335
scalar Scenario.node[48].appl generatedWSAs 0
scalar Scenario.node[48].appl receivedWSAs 0
par Scenario.node[48].nic.phy80211p typename "\"org.car2x.veins.modules.phy.PhyLayer80211p\""
par Scenario.node[48].nic.phy80211p recordStats false
par Scenario.node[48].nic.phy80211p usePropagationDelay true
par Scenario.node[48].nic.phy80211p noiseFloor -98dBm
attr unit dBm
par Scenario.node[48].nic.phy80211p useNoiseFloor true
par Scenario.node[48].nic.phy80211p antenna "<root>...</root> at content:1"
par Scenario.node[48].nic.phy80211p antennaOffsetX 0m
attr unit m
par Scenario.node[48].nic.phy80211p antennaOffsetY 0m
attr unit m
par Scenario.node[48].nic.phy80211p antennaOffsetZ 1.895m
attr unit m
par Scenario.node[48].nic.phy80211p antennaOffsetYaw 0rad
attr unit rad
par Scenario.node[48].nic.phy80211p analogueModels "<root>...</root> at /home/vagrant/spe-homework-project/Project/simulations//config_3.xml:2"
par Scenario.node[48].nic.phy80211p decider "<root>...</root> at /home/vagrant/spe-homework-project/Project/simulations//config_3.xml:2"
par Scenario.node[48].nic.phy80211p minPowerLevel -110dBm
attr unit dBm
par Scenario.node[48].nic.phy80211p timeRXToTX 0s
attr unit s
par Scenario.node[48].nic.phy80211p timeRXToSleep 0s
attr unit s
par Scenario.node[48].nic.phy80211p timeTXToRX 0s
attr unit s
par Scenario.node[48].nic.phy80211p timeTXToSleep 0s
attr unit s
par Scenario.node[48].nic.phy80211p timeSleepToRX 0s
attr unit s
par Scenario.node[48].nic.phy80211p timeSleepToTX 0s
attr unit s
par Scenario.node[48].nic.phy80211p initialRadioState 0
par Scenario.node[48].nic.phy80211p radioMinAtt 1
par Scenario.node[48].nic.phy80211p radioMaxAtt 0
par Scenario.node[48].nic.phy80211p nbRadioChannels 1
par Scenario.node[48].nic.phy80211p initialRadioChannel 0
par Scenario.node[48].nic.phy80211p ccaThreshold -65dBm
attr unit dBm
par Scenario.node[48].nic.phy80211p collectCollisionStatistics false
par Scenario.node[48].nic.phy80211p allowTxDuringRx false
scalar Scenario.node[48].nic.phy80211p busyTime 0.013365925925926
par Scenario.node[48].nic.mac1609_4 typename "\"org.car2x.veins.modules.mac.ieee80211p.Mac1609_4\""
par Scenario.node[48].nic.mac1609_4 notAffectedByHostState false
par Scenario.node[48].nic.mac1609_4 headerLength 0bit
attr unit bit
par Scenario.node[48].nic.mac1609_4 address "\"auto\""
par Scenario.node[48].nic.mac1609_4 useServiceChannel false
par Scenario.node[48].nic.mac1609_4 serviceChannel 1
par Scenario.node[48].nic.mac1609_4 bitrate 6000000bps
attr unit bps
par Scenario.node[48].nic.mac1609_4 syncOffset 0.0003s
attr unit s
par Scenario.node[48].nic.mac1609_4 txPower 20mW
attr unit mW
par Scenario.node[48].nic.mac1609_4 queueSize 0
par Scenario.node[48].nic.mac1609_4 dot11RTSThreshold 12000bit
attr unit bit
par Scenario.node[48].nic.mac1609_4 dot11ShortRetryLimit 7
par Scenario.node[48].nic.mac1609_4 dot11LongRetryLimit 4
par Scenario.node[48].nic.mac1609_4 ackLength 112bit
attr unit bit
par Scenario.node[48].nic.mac1609_4 useAcks false
par Scenario.node[48].nic.mac1609_4 frameErrorRate 0
par Scenario.node[48].nic.mac1609_4 ackErrorRate 0
scalar Scenario.node[48].nic.mac1609_4 ReceivedUnicastPackets 0
scalar Scenario.node[48].nic.mac1609_4 ReceivedBroadcasts 335
scalar Scenario.node[48].nic.mac1609_4 SentPackets 27
scalar Scenario.node[48].nic.mac1609_4 SentAcknowledgements 0
scalar Scenario.node[48].nic.mac1609_4 RetriesExceeded 0
scalar Scenario.node[48].nic.mac1609_4 SNIRLostPackets 12
scalar Scenario.node[48].nic.mac1609_4 RXTXLostPackets 0
scalar Scenario.node[48].nic.mac1609_4 TotalLostPackets 12
scalar Scenario.node[48].nic.mac1609_4 DroppedPacketsInMac 0
scalar Scenario.node[48].nic.mac1609_4 TooLittleTime 0
scalar Scenario.node[48].nic.mac1609_4 TimesIntoBackoff 27
scalar Scenario.node[48].nic.mac1609_4 SlotsBackoff 46
scalar Scenario.node[48].nic.mac1609_4 NumInternalContention 0
scalar Scenario.node[48].nic.mac1609_4 totalBusyTime 0.038923
scalar Scenario.node[48].nic.mac1609_4 retriesExceeded:count 0
attr recordingmode count
attr source org_car2x_veins_modules_mac_sigRetriesExceeded
scalar Scenario.node[48].nic.mac1609_4 sentAcks:count 0
attr recordingmode count
attr source org_car2x_veins_modules_mac_sigSentAck
scalar Scenario.node[48].nic.mac1609_4 sentPackets:count 27
attr recordingmode count
attr source org_car2x_veins_modules_mac_sigSentPacket
scalar Scenario.node[48].nic.mac1609_4 collisions:count 0
attr recordingmode count
attr source org_car2x_veins_modules_mac_sigCollision
scalar Scenario.node[48].nic.mac1609_4 channelBusy:timeavg 0.014415925925926
attr recordingmode timeavg
attr source org_car2x_veins_modules_mac_sigChannelBusy
par Scenario.node[48].nic typename "\"org.car2x.veins.modules.nic.Nic80211p\""
par Scenario.node[48].nic connectionManagerName "\"connectionManager\""
par Scenario.node[48].veinsmobility typename "\"org.car2x.veins.modules.mobility.traci.TraCIMobility\""
par Scenario.node[48].veinsmobility notAffectedByHostState true
par Scenario.node[48].veinsmobility x 0
par Scenario.node[48].veinsmobility y 0
par Scenario.node[48].veinsmobility z 1.895
par Scenario.node[48].veinsmobility xOrientation 1
par Scenario.node[48].veinsmobility yOrientation 0
par Scenario.node[48].veinsmobility zOrientation 0
par Scenario.node[48].veinsmobility hostPositionOffset 0m
attr unit m
par Scenario.node[48].veinsmobility setHostSpeed false
par Scenario.node[48].veinsmobility accidentCount 0
par Scenario.node[48].veinsmobility accidentStart 42.3414s
attr unit s
par Scenario.node[48].veinsmobility accidentDuration "uniform(30s, 60s)"
attr unit s
par Scenario.node[48].veinsmobility accidentInterval "uniform(30s, 60s)"
attr unit s
scalar Scenario.node[48].veinsmobility startTime 97.3
scalar Scenario.node[48].veinsmobility totalTime 2.7
scalar Scenario.node[48].veinsmobility stopTime 100
scalar Scenario.node[48].veinsmobility minSpeed 0.25428386677499
scalar Scenario.node[48].veinsmobility maxSpeed 5.6263816753172
scalar Scenario.node[48].veinsmobility totalDistance 8.2156674705387
scalar Scenario.node[48].veinsmobility totalCO2Emission 7.2385135579114
par Scenario.node[48] typename "\"org.car2x.veins.nodes.Car\""
par Scenario.node[48] applType "\"TraCIDemo11p\""
par Scenario.node[48] nicType "\"Nic80211p\""
par Scenario.node[48] veinsmobilityType "\"org.car2x.veins.modules.mobility.traci.TraCIMobility\""
par Scenario typename "\"org.car2x.veins.nodes.Scenario\""
par Scenario playgroundSizeX 600m
attr unit m
par Scenario playgroundSizeY 600m
attr unit m
par Scenario playgroundSizeZ 50m
attr unit m

