version 3
run Scenario5-7-20260627-17:10:43-7676
attr configname Scenario5
attr datetime 20260627-17:10:43
attr datetimef 20260627-171043
attr experiment Scenario5
attr inifile omnetpp.ini
attr iterationvars ""
attr iterationvarsd ""
attr iterationvarsf ""
attr measurement ""
attr network org.car2x.veins.nodes.Scenario
attr processid 7676
attr repetition 7
attr replication #7
attr resultdir results
attr runnumber 7
attr seedset 7
config image-path ../../../veins/images
config *.playgroundSizeX 1100m
config *.playgroundSizeY 200m
config *.playgroundSizeZ 50m
config *.annotations.draw false
config *.**.nic.phy80211p.decider "xmldoc(\"config_5.xml\")"
config *.**.nic.phy80211p.analogueModels "xmldoc(\"config_5.xml\")"
config *.manager.launchConfig "xmldoc(\"straight_road.launchd.xml\")"
config repeat 10
config seed-set 7
config network org.car2x.veins.nodes.Scenario
config sim-time-limit 100s
config *.playgroundSizeX 600m
config *.playgroundSizeY 600m
config *.playgroundSizeZ 50m
config *.manager.updateInterval 0.1s
config *.manager.host "\"localhost\""
config *.manager.port 9999
config *.manager.autoShutdown true
config *.manager.launchConfig "xmldoc(\"simulation.launchd.xml\")"
config *.node[*].veinsmobility.x 0
config *.node[*].veinsmobility.y 0
config *.node[*].veinsmobility.z 1.895
config *.node[*].applType "\"TraCIDemo11p\""
config *.node[*].appl.headerLength "80 bit"
config *.node[*].appl.sendBeacons true
config *.node[*].appl.dataOnSch false
config *.node[*].appl.beaconInterval 0.1s
config *.connectionManager.sendDirect true
config *.connectionManager.maxInterfDist 500m
config *.connectionManager.drawMaxIntfDist false
config *.**.nic.mac1609_4.useServiceChannel false
config *.**.nic.mac1609_4.txPower 20mW
config *.**.nic.mac1609_4.bitrate 6Mbps
config *.**.nic.phy80211p.minPowerLevel -110dBm
config *.**.nic.phy80211p.useNoiseFloor true
config *.**.nic.phy80211p.noiseFloor -98dBm
config *.**.nic.phy80211p.usePropagationDelay true
config **.vector-recording true
config **.scalar-recording true
config *.**.nic.phy80211p.*.vector-recording true
config *.**.nic.mac1609_4.*.vector-recording true
config **.rcvdPower:vector.vector-recording true
config **.snir:vector.vector-recording true

par Scenario.node[2].appl typename "\"org.car2x.veins.modules.application.traci.TraCIDemo11p\""
par Scenario.node[2].appl headerLength 80bit
attr unit bit
par Scenario.node[2].appl sendBeacons true
par Scenario.node[2].appl beaconLengthBits 256bit
attr unit bit
par Scenario.node[2].appl beaconUserPriority 7
par Scenario.node[2].appl beaconInterval 0.1s
attr unit s
par Scenario.node[2].appl dataLengthBits 1024bit
attr unit bit
par Scenario.node[2].appl dataOnSch false
par Scenario.node[2].appl dataUserPriority 7
par Scenario.node[2].appl avoidBeaconSynchronization true
par Scenario.node[2].appl sendWSA false
par Scenario.node[2].appl wsaLengthBits 250bit
attr unit bit
par Scenario.node[2].appl wsaInterval 1s
attr unit s
scalar Scenario.node[2].appl generatedWSMs 0
scalar Scenario.node[2].appl receivedWSMs 0
scalar Scenario.node[2].appl generatedBSMs 697
scalar Scenario.node[2].appl receivedBSMs 13405
scalar Scenario.node[2].appl generatedWSAs 0
scalar Scenario.node[2].appl receivedWSAs 0
par Scenario.node[2].nic.phy80211p typename "\"org.car2x.veins.modules.phy.PhyLayer80211p\""
par Scenario.node[2].nic.phy80211p recordStats false
par Scenario.node[2].nic.phy80211p usePropagationDelay true
par Scenario.node[2].nic.phy80211p noiseFloor -98dBm
attr unit dBm
par Scenario.node[2].nic.phy80211p useNoiseFloor true
par Scenario.node[2].nic.phy80211p antenna "<root>...</root> at content:1"
par Scenario.node[2].nic.phy80211p antennaOffsetX 0m
attr unit m
par Scenario.node[2].nic.phy80211p antennaOffsetY 0m
attr unit m
par Scenario.node[2].nic.phy80211p antennaOffsetZ 1.895m
attr unit m
par Scenario.node[2].nic.phy80211p antennaOffsetYaw 0rad
attr unit rad
par Scenario.node[2].nic.phy80211p analogueModels "<root>...</root> at /home/vagrant/spe-homework-project/Project/simulations//config_5.xml:2"
par Scenario.node[2].nic.phy80211p decider "<root>...</root> at /home/vagrant/spe-homework-project/Project/simulations//config_5.xml:2"
par Scenario.node[2].nic.phy80211p minPowerLevel -110dBm
attr unit dBm
par Scenario.node[2].nic.phy80211p timeRXToTX 0s
attr unit s
par Scenario.node[2].nic.phy80211p timeRXToSleep 0s
attr unit s
par Scenario.node[2].nic.phy80211p timeTXToRX 0s
attr unit s
par Scenario.node[2].nic.phy80211p timeTXToSleep 0s
attr unit s
par Scenario.node[2].nic.phy80211p timeSleepToRX 0s
attr unit s
par Scenario.node[2].nic.phy80211p timeSleepToTX 0s
attr unit s
par Scenario.node[2].nic.phy80211p initialRadioState 0
par Scenario.node[2].nic.phy80211p radioMinAtt 1
par Scenario.node[2].nic.phy80211p radioMaxAtt 0
par Scenario.node[2].nic.phy80211p nbRadioChannels 1
par Scenario.node[2].nic.phy80211p initialRadioChannel 0
par Scenario.node[2].nic.phy80211p ccaThreshold -65dBm
attr unit dBm
par Scenario.node[2].nic.phy80211p collectCollisionStatistics false
par Scenario.node[2].nic.phy80211p allowTxDuringRx false
scalar Scenario.node[2].nic.phy80211p busyTime 0.02055827833573
par Scenario.node[2].nic.mac1609_4 typename "\"org.car2x.veins.modules.mac.ieee80211p.Mac1609_4\""
par Scenario.node[2].nic.mac1609_4 notAffectedByHostState false
par Scenario.node[2].nic.mac1609_4 headerLength 0bit
attr unit bit
par Scenario.node[2].nic.mac1609_4 address "\"auto\""
par Scenario.node[2].nic.mac1609_4 useServiceChannel false
par Scenario.node[2].nic.mac1609_4 serviceChannel 1
par Scenario.node[2].nic.mac1609_4 bitrate 6000000bps
attr unit bps
par Scenario.node[2].nic.mac1609_4 syncOffset 0.0003s
attr unit s
par Scenario.node[2].nic.mac1609_4 txPower 20mW
attr unit mW
par Scenario.node[2].nic.mac1609_4 queueSize 0
par Scenario.node[2].nic.mac1609_4 dot11RTSThreshold 12000bit
attr unit bit
par Scenario.node[2].nic.mac1609_4 dot11ShortRetryLimit 7
par Scenario.node[2].nic.mac1609_4 dot11LongRetryLimit 4
par Scenario.node[2].nic.mac1609_4 ackLength 112bit
attr unit bit
par Scenario.node[2].nic.mac1609_4 useAcks false
par Scenario.node[2].nic.mac1609_4 frameErrorRate 0
par Scenario.node[2].nic.mac1609_4 ackErrorRate 0
scalar Scenario.node[2].nic.mac1609_4 ReceivedUnicastPackets 0
scalar Scenario.node[2].nic.mac1609_4 ReceivedBroadcasts 13405
scalar Scenario.node[2].nic.mac1609_4 SentPackets 697
scalar Scenario.node[2].nic.mac1609_4 SentAcknowledgements 0
scalar Scenario.node[2].nic.mac1609_4 RetriesExceeded 0
scalar Scenario.node[2].nic.mac1609_4 SNIRLostPackets 373
scalar Scenario.node[2].nic.mac1609_4 RXTXLostPackets 0
scalar Scenario.node[2].nic.mac1609_4 TotalLostPackets 373
scalar Scenario.node[2].nic.mac1609_4 DroppedPacketsInMac 0
scalar Scenario.node[2].nic.mac1609_4 TooLittleTime 0
scalar Scenario.node[2].nic.mac1609_4 TimesIntoBackoff 697
scalar Scenario.node[2].nic.mac1609_4 SlotsBackoff 1027
scalar Scenario.node[2].nic.mac1609_4 NumInternalContention 0
scalar Scenario.node[2].nic.mac1609_4 totalBusyTime 1.494174117207
scalar Scenario.node[2].nic.mac1609_4 retriesExceeded:count 0
attr recordingmode count
attr source org_car2x_veins_modules_mac_sigRetriesExceeded
scalar Scenario.node[2].nic.mac1609_4 sentAcks:count 0
attr recordingmode count
attr source org_car2x_veins_modules_mac_sigSentAck
scalar Scenario.node[2].nic.mac1609_4 sentPackets:count 697
attr recordingmode count
attr source org_car2x_veins_modules_mac_sigSentPacket
scalar Scenario.node[2].nic.mac1609_4 collisions:count 0
attr recordingmode count
attr source org_car2x_veins_modules_mac_sigCollision
scalar Scenario.node[2].nic.mac1609_4 channelBusy:timeavg 0.021437218324353
attr recordingmode timeavg
attr source org_car2x_veins_modules_mac_sigChannelBusy
par Scenario.node[2].nic typename "\"org.car2x.veins.modules.nic.Nic80211p\""
par Scenario.node[2].nic connectionManagerName "\"connectionManager\""
par Scenario.node[2].veinsmobility typename "\"org.car2x.veins.modules.mobility.traci.TraCIMobility\""
par Scenario.node[2].veinsmobility notAffectedByHostState true
par Scenario.node[2].veinsmobility x 0
par Scenario.node[2].veinsmobility y 0
par Scenario.node[2].veinsmobility z 1.895
par Scenario.node[2].veinsmobility xOrientation 1
par Scenario.node[2].veinsmobility yOrientation 0
par Scenario.node[2].veinsmobility zOrientation 0
par Scenario.node[2].veinsmobility hostPositionOffset 0m
attr unit m
par Scenario.node[2].veinsmobility setHostSpeed false
par Scenario.node[2].veinsmobility accidentCount 0
par Scenario.node[2].veinsmobility accidentStart 45.7024s
attr unit s
par Scenario.node[2].veinsmobility accidentDuration "uniform(30s, 60s)"
attr unit s
par Scenario.node[2].veinsmobility accidentInterval "uniform(30s, 60s)"
attr unit s
scalar Scenario.node[2].veinsmobility startTime 2.7
scalar Scenario.node[2].veinsmobility totalTime 69.6
scalar Scenario.node[2].veinsmobility stopTime 72.4
scalar Scenario.node[2].veinsmobility minSpeed 0.24841938510723
scalar Scenario.node[2].veinsmobility maxSpeed 16.304200903072
scalar Scenario.node[2].veinsmobility totalDistance 994.28493726296
scalar Scenario.node[2].veinsmobility totalCO2Emission 206.49957217811
par Scenario.node[2] typename "\"org.car2x.veins.nodes.Car\""
par Scenario.node[2] applType "\"TraCIDemo11p\""
par Scenario.node[2] nicType "\"Nic80211p\""
par Scenario.node[2] veinsmobilityType "\"org.car2x.veins.modules.mobility.traci.TraCIMobility\""
par Scenario.node[1].appl typename "\"org.car2x.veins.modules.application.traci.TraCIDemo11p\""
par Scenario.node[1].appl headerLength 80bit
attr unit bit
par Scenario.node[1].appl sendBeacons true
par Scenario.node[1].appl beaconLengthBits 256bit
attr unit bit
par Scenario.node[1].appl beaconUserPriority 7
par Scenario.node[1].appl beaconInterval 0.1s
attr unit s
par Scenario.node[1].appl dataLengthBits 1024bit
attr unit bit
par Scenario.node[1].appl dataOnSch false
par Scenario.node[1].appl dataUserPriority 7
par Scenario.node[1].appl avoidBeaconSynchronization true
par Scenario.node[1].appl sendWSA false
par Scenario.node[1].appl wsaLengthBits 250bit
attr unit bit
par Scenario.node[1].appl wsaInterval 1s
attr unit s
scalar Scenario.node[1].appl generatedWSMs 0
scalar Scenario.node[1].appl receivedWSMs 0
scalar Scenario.node[1].appl generatedBSMs 757
scalar Scenario.node[1].appl receivedBSMs 15499
scalar Scenario.node[1].appl generatedWSAs 0
scalar Scenario.node[1].appl receivedWSAs 0
par Scenario.node[1].nic.phy80211p typename "\"org.car2x.veins.modules.phy.PhyLayer80211p\""
par Scenario.node[1].nic.phy80211p recordStats false
par Scenario.node[1].nic.phy80211p usePropagationDelay true
par Scenario.node[1].nic.phy80211p noiseFloor -98dBm
attr unit dBm
par Scenario.node[1].nic.phy80211p useNoiseFloor true
par Scenario.node[1].nic.phy80211p antenna "<root>...</root> at content:1"
par Scenario.node[1].nic.phy80211p antennaOffsetX 0m
attr unit m
par Scenario.node[1].nic.phy80211p antennaOffsetY 0m
attr unit m
par Scenario.node[1].nic.phy80211p antennaOffsetZ 1.895m
attr unit m
par Scenario.node[1].nic.phy80211p antennaOffsetYaw 0rad
attr unit rad
par Scenario.node[1].nic.phy80211p analogueModels "<root>...</root> at /home/vagrant/spe-homework-project/Project/simulations//config_5.xml:2"
par Scenario.node[1].nic.phy80211p decider "<root>...</root> at /home/vagrant/spe-homework-project/Project/simulations//config_5.xml:2"
par Scenario.node[1].nic.phy80211p minPowerLevel -110dBm
attr unit dBm
par Scenario.node[1].nic.phy80211p timeRXToTX 0s
attr unit s
par Scenario.node[1].nic.phy80211p timeRXToSleep 0s
attr unit s
par Scenario.node[1].nic.phy80211p timeTXToRX 0s
attr unit s
par Scenario.node[1].nic.phy80211p timeTXToSleep 0s
attr unit s
par Scenario.node[1].nic.phy80211p timeSleepToRX 0s
attr unit s
par Scenario.node[1].nic.phy80211p timeSleepToTX 0s
attr unit s
par Scenario.node[1].nic.phy80211p initialRadioState 0
par Scenario.node[1].nic.phy80211p radioMinAtt 1
par Scenario.node[1].nic.phy80211p radioMaxAtt 0
par Scenario.node[1].nic.phy80211p nbRadioChannels 1
par Scenario.node[1].nic.phy80211p initialRadioChannel 0
par Scenario.node[1].nic.phy80211p ccaThreshold -65dBm
attr unit dBm
par Scenario.node[1].nic.phy80211p collectCollisionStatistics false
par Scenario.node[1].nic.phy80211p allowTxDuringRx false
scalar Scenario.node[1].nic.phy80211p busyTime 0.021717727873191
par Scenario.node[1].nic.mac1609_4 typename "\"org.car2x.veins.modules.mac.ieee80211p.Mac1609_4\""
par Scenario.node[1].nic.mac1609_4 notAffectedByHostState false
par Scenario.node[1].nic.mac1609_4 headerLength 0bit
attr unit bit
par Scenario.node[1].nic.mac1609_4 address "\"auto\""
par Scenario.node[1].nic.mac1609_4 useServiceChannel false
par Scenario.node[1].nic.mac1609_4 serviceChannel 1
par Scenario.node[1].nic.mac1609_4 bitrate 6000000bps
attr unit bps
par Scenario.node[1].nic.mac1609_4 syncOffset 0.0003s
attr unit s
par Scenario.node[1].nic.mac1609_4 txPower 20mW
attr unit mW
par Scenario.node[1].nic.mac1609_4 queueSize 0
par Scenario.node[1].nic.mac1609_4 dot11RTSThreshold 12000bit
attr unit bit
par Scenario.node[1].nic.mac1609_4 dot11ShortRetryLimit 7
par Scenario.node[1].nic.mac1609_4 dot11LongRetryLimit 4
par Scenario.node[1].nic.mac1609_4 ackLength 112bit
attr unit bit
par Scenario.node[1].nic.mac1609_4 useAcks false
par Scenario.node[1].nic.mac1609_4 frameErrorRate 0
par Scenario.node[1].nic.mac1609_4 ackErrorRate 0
scalar Scenario.node[1].nic.mac1609_4 ReceivedUnicastPackets 0
scalar Scenario.node[1].nic.mac1609_4 ReceivedBroadcasts 15499
scalar Scenario.node[1].nic.mac1609_4 SentPackets 757
scalar Scenario.node[1].nic.mac1609_4 SentAcknowledgements 0
scalar Scenario.node[1].nic.mac1609_4 RetriesExceeded 0
scalar Scenario.node[1].nic.mac1609_4 SNIRLostPackets 309
scalar Scenario.node[1].nic.mac1609_4 RXTXLostPackets 0
scalar Scenario.node[1].nic.mac1609_4 TotalLostPackets 309
scalar Scenario.node[1].nic.mac1609_4 DroppedPacketsInMac 0
scalar Scenario.node[1].nic.mac1609_4 TooLittleTime 0
scalar Scenario.node[1].nic.mac1609_4 TimesIntoBackoff 757
scalar Scenario.node[1].nic.mac1609_4 SlotsBackoff 1090
scalar Scenario.node[1].nic.mac1609_4 NumInternalContention 0
scalar Scenario.node[1].nic.mac1609_4 totalBusyTime 1.70973681849
scalar Scenario.node[1].nic.mac1609_4 retriesExceeded:count 0
attr recordingmode count
attr source org_car2x_veins_modules_mac_sigRetriesExceeded
scalar Scenario.node[1].nic.mac1609_4 sentAcks:count 0
attr recordingmode count
attr source org_car2x_veins_modules_mac_sigSentAck
scalar Scenario.node[1].nic.mac1609_4 sentPackets:count 757
attr recordingmode count
attr source org_car2x_veins_modules_mac_sigSentPacket
scalar Scenario.node[1].nic.mac1609_4 collisions:count 0
attr recordingmode count
attr source org_car2x_veins_modules_mac_sigCollision
scalar Scenario.node[1].nic.mac1609_4 channelBusy:timeavg 0.022585691129335
attr recordingmode timeavg
attr source org_car2x_veins_modules_mac_sigChannelBusy
par Scenario.node[1].nic typename "\"org.car2x.veins.modules.nic.Nic80211p\""
par Scenario.node[1].nic connectionManagerName "\"connectionManager\""
par Scenario.node[1].veinsmobility typename "\"org.car2x.veins.modules.mobility.traci.TraCIMobility\""
par Scenario.node[1].veinsmobility notAffectedByHostState true
par Scenario.node[1].veinsmobility x 0
par Scenario.node[1].veinsmobility y 0
par Scenario.node[1].veinsmobility z 1.895
par Scenario.node[1].veinsmobility xOrientation 1
par Scenario.node[1].veinsmobility yOrientation 0
par Scenario.node[1].veinsmobility zOrientation 0
par Scenario.node[1].veinsmobility hostPositionOffset 0m
attr unit m
par Scenario.node[1].veinsmobility setHostSpeed false
par Scenario.node[1].veinsmobility accidentCount 0
par Scenario.node[1].veinsmobility accidentStart 42.5812s
attr unit s
par Scenario.node[1].veinsmobility accidentDuration "uniform(30s, 60s)"
attr unit s
par Scenario.node[1].veinsmobility accidentInterval "uniform(30s, 60s)"
attr unit s
scalar Scenario.node[1].veinsmobility startTime 1.1
scalar Scenario.node[1].veinsmobility totalTime 75.6
scalar Scenario.node[1].veinsmobility stopTime 76.8
scalar Scenario.node[1].veinsmobility minSpeed 0.25986513594398
scalar Scenario.node[1].veinsmobility maxSpeed 13.821931002381
scalar Scenario.node[1].veinsmobility totalDistance 994.79806081671
scalar Scenario.node[1].veinsmobility totalCO2Emission 192.7489108292
par Scenario.node[1] typename "\"org.car2x.veins.nodes.Car\""
par Scenario.node[1] applType "\"TraCIDemo11p\""
par Scenario.node[1] nicType "\"Nic80211p\""
par Scenario.node[1] veinsmobilityType "\"org.car2x.veins.modules.mobility.traci.TraCIMobility\""
par Scenario.node[3].appl typename "\"org.car2x.veins.modules.application.traci.TraCIDemo11p\""
par Scenario.node[3].appl headerLength 80bit
attr unit bit
par Scenario.node[3].appl sendBeacons true
par Scenario.node[3].appl beaconLengthBits 256bit
attr unit bit
par Scenario.node[3].appl beaconUserPriority 7
par Scenario.node[3].appl beaconInterval 0.1s
attr unit s
par Scenario.node[3].appl dataLengthBits 1024bit
attr unit bit
par Scenario.node[3].appl dataOnSch false
par Scenario.node[3].appl dataUserPriority 7
par Scenario.node[3].appl avoidBeaconSynchronization true
par Scenario.node[3].appl sendWSA false
par Scenario.node[3].appl wsaLengthBits 250bit
attr unit bit
par Scenario.node[3].appl wsaInterval 1s
attr unit s
scalar Scenario.node[3].appl generatedWSMs 0
scalar Scenario.node[3].appl receivedWSMs 0
scalar Scenario.node[3].appl generatedBSMs 753
scalar Scenario.node[3].appl receivedBSMs 16722
scalar Scenario.node[3].appl generatedWSAs 0
scalar Scenario.node[3].appl receivedWSAs 0
par Scenario.node[3].nic.phy80211p typename "\"org.car2x.veins.modules.phy.PhyLayer80211p\""
par Scenario.node[3].nic.phy80211p recordStats false
par Scenario.node[3].nic.phy80211p usePropagationDelay true
par Scenario.node[3].nic.phy80211p noiseFloor -98dBm
attr unit dBm
par Scenario.node[3].nic.phy80211p useNoiseFloor true
par Scenario.node[3].nic.phy80211p antenna "<root>...</root> at content:1"
par Scenario.node[3].nic.phy80211p antennaOffsetX 0m
attr unit m
par Scenario.node[3].nic.phy80211p antennaOffsetY 0m
attr unit m
par Scenario.node[3].nic.phy80211p antennaOffsetZ 1.895m
attr unit m
par Scenario.node[3].nic.phy80211p antennaOffsetYaw 0rad
attr unit rad
par Scenario.node[3].nic.phy80211p analogueModels "<root>...</root> at /home/vagrant/spe-homework-project/Project/simulations//config_5.xml:2"
par Scenario.node[3].nic.phy80211p decider "<root>...</root> at /home/vagrant/spe-homework-project/Project/simulations//config_5.xml:2"
par Scenario.node[3].nic.phy80211p minPowerLevel -110dBm
attr unit dBm
par Scenario.node[3].nic.phy80211p timeRXToTX 0s
attr unit s
par Scenario.node[3].nic.phy80211p timeRXToSleep 0s
attr unit s
par Scenario.node[3].nic.phy80211p timeTXToRX 0s
attr unit s
par Scenario.node[3].nic.phy80211p timeTXToSleep 0s
attr unit s
par Scenario.node[3].nic.phy80211p timeSleepToRX 0s
attr unit s
par Scenario.node[3].nic.phy80211p timeSleepToTX 0s
attr unit s
par Scenario.node[3].nic.phy80211p initialRadioState 0
par Scenario.node[3].nic.phy80211p radioMinAtt 1
par Scenario.node[3].nic.phy80211p radioMaxAtt 0
par Scenario.node[3].nic.phy80211p nbRadioChannels 1
par Scenario.node[3].nic.phy80211p initialRadioChannel 0
par Scenario.node[3].nic.phy80211p ccaThreshold -65dBm
attr unit dBm
par Scenario.node[3].nic.phy80211p collectCollisionStatistics false
par Scenario.node[3].nic.phy80211p allowTxDuringRx false
scalar Scenario.node[3].nic.phy80211p busyTime 0.023483559096955
par Scenario.node[3].nic.mac1609_4 typename "\"org.car2x.veins.modules.mac.ieee80211p.Mac1609_4\""
par Scenario.node[3].nic.mac1609_4 notAffectedByHostState false
par Scenario.node[3].nic.mac1609_4 headerLength 0bit
attr unit bit
par Scenario.node[3].nic.mac1609_4 address "\"auto\""
par Scenario.node[3].nic.mac1609_4 useServiceChannel false
par Scenario.node[3].nic.mac1609_4 serviceChannel 1
par Scenario.node[3].nic.mac1609_4 bitrate 6000000bps
attr unit bps
par Scenario.node[3].nic.mac1609_4 syncOffset 0.0003s
attr unit s
par Scenario.node[3].nic.mac1609_4 txPower 20mW
attr unit mW
par Scenario.node[3].nic.mac1609_4 queueSize 0
par Scenario.node[3].nic.mac1609_4 dot11RTSThreshold 12000bit
attr unit bit
par Scenario.node[3].nic.mac1609_4 dot11ShortRetryLimit 7
par Scenario.node[3].nic.mac1609_4 dot11LongRetryLimit 4
par Scenario.node[3].nic.mac1609_4 ackLength 112bit
attr unit bit
par Scenario.node[3].nic.mac1609_4 useAcks false
par Scenario.node[3].nic.mac1609_4 frameErrorRate 0
par Scenario.node[3].nic.mac1609_4 ackErrorRate 0
scalar Scenario.node[3].nic.mac1609_4 ReceivedUnicastPackets 0
scalar Scenario.node[3].nic.mac1609_4 ReceivedBroadcasts 16722
scalar Scenario.node[3].nic.mac1609_4 SentPackets 753
scalar Scenario.node[3].nic.mac1609_4 SentAcknowledgements 0
scalar Scenario.node[3].nic.mac1609_4 RetriesExceeded 0
scalar Scenario.node[3].nic.mac1609_4 SNIRLostPackets 281
scalar Scenario.node[3].nic.mac1609_4 RXTXLostPackets 0
scalar Scenario.node[3].nic.mac1609_4 TotalLostPackets 281
scalar Scenario.node[3].nic.mac1609_4 DroppedPacketsInMac 0
scalar Scenario.node[3].nic.mac1609_4 TooLittleTime 0
scalar Scenario.node[3].nic.mac1609_4 TimesIntoBackoff 753
scalar Scenario.node[3].nic.mac1609_4 SlotsBackoff 1096
scalar Scenario.node[3].nic.mac1609_4 NumInternalContention 0
scalar Scenario.node[3].nic.mac1609_4 totalBusyTime 1.834691888616
scalar Scenario.node[3].nic.mac1609_4 retriesExceeded:count 0
attr recordingmode count
attr source org_car2x_veins_modules_mac_sigRetriesExceeded
scalar Scenario.node[3].nic.mac1609_4 sentAcks:count 0
attr recordingmode count
attr source org_car2x_veins_modules_mac_sigSentAck
scalar Scenario.node[3].nic.mac1609_4 sentPackets:count 753
attr recordingmode count
attr source org_car2x_veins_modules_mac_sigSentPacket
scalar Scenario.node[3].nic.mac1609_4 collisions:count 0
attr recordingmode count
attr source org_car2x_veins_modules_mac_sigCollision
scalar Scenario.node[3].nic.mac1609_4 channelBusy:timeavg 0.0243650981224
attr recordingmode timeavg
attr source org_car2x_veins_modules_mac_sigChannelBusy
par Scenario.node[3].nic typename "\"org.car2x.veins.modules.nic.Nic80211p\""
par Scenario.node[3].nic connectionManagerName "\"connectionManager\""
par Scenario.node[3].veinsmobility typename "\"org.car2x.veins.modules.mobility.traci.TraCIMobility\""
par Scenario.node[3].veinsmobility notAffectedByHostState true
par Scenario.node[3].veinsmobility x 0
par Scenario.node[3].veinsmobility y 0
par Scenario.node[3].veinsmobility z 1.895
par Scenario.node[3].veinsmobility xOrientation 1
par Scenario.node[3].veinsmobility yOrientation 0
par Scenario.node[3].veinsmobility zOrientation 0
par Scenario.node[3].veinsmobility hostPositionOffset 0m
attr unit m
par Scenario.node[3].veinsmobility setHostSpeed false
par Scenario.node[3].veinsmobility accidentCount 0
par Scenario.node[3].veinsmobility accidentStart 37.1081s
attr unit s
par Scenario.node[3].veinsmobility accidentDuration "uniform(30s, 60s)"
attr unit s
par Scenario.node[3].veinsmobility accidentInterval "uniform(30s, 60s)"
attr unit s
scalar Scenario.node[3].veinsmobility startTime 4.1
scalar Scenario.node[3].veinsmobility totalTime 75.2
scalar Scenario.node[3].veinsmobility stopTime 79.4
scalar Scenario.node[3].veinsmobility minSpeed 0.25823947311146
scalar Scenario.node[3].veinsmobility maxSpeed 13.892542315106
scalar Scenario.node[3].veinsmobility totalDistance 994.64253302638
scalar Scenario.node[3].veinsmobility totalCO2Emission 191.41055806347
par Scenario.node[3] typename "\"org.car2x.veins.nodes.Car\""
par Scenario.node[3] applType "\"TraCIDemo11p\""
par Scenario.node[3] nicType "\"Nic80211p\""
par Scenario.node[3] veinsmobilityType "\"org.car2x.veins.modules.mobility.traci.TraCIMobility\""
par Scenario.node[6].appl typename "\"org.car2x.veins.modules.application.traci.TraCIDemo11p\""
par Scenario.node[6].appl headerLength 80bit
attr unit bit
par Scenario.node[6].appl sendBeacons true
par Scenario.node[6].appl beaconLengthBits 256bit
attr unit bit
par Scenario.node[6].appl beaconUserPriority 7
par Scenario.node[6].appl beaconInterval 0.1s
attr unit s
par Scenario.node[6].appl dataLengthBits 1024bit
attr unit bit
par Scenario.node[6].appl dataOnSch false
par Scenario.node[6].appl dataUserPriority 7
par Scenario.node[6].appl avoidBeaconSynchronization true
par Scenario.node[6].appl sendWSA false
par Scenario.node[6].appl wsaLengthBits 250bit
attr unit bit
par Scenario.node[6].appl wsaInterval 1s
attr unit s
scalar Scenario.node[6].appl generatedWSMs 0
scalar Scenario.node[6].appl receivedWSMs 0
scalar Scenario.node[6].appl generatedBSMs 747
scalar Scenario.node[6].appl receivedBSMs 17489
scalar Scenario.node[6].appl generatedWSAs 0
scalar Scenario.node[6].appl receivedWSAs 0
par Scenario.node[6].nic.phy80211p typename "\"org.car2x.veins.modules.phy.PhyLayer80211p\""
par Scenario.node[6].nic.phy80211p recordStats false
par Scenario.node[6].nic.phy80211p usePropagationDelay true
par Scenario.node[6].nic.phy80211p noiseFloor -98dBm
attr unit dBm
par Scenario.node[6].nic.phy80211p useNoiseFloor true
par Scenario.node[6].nic.phy80211p antenna "<root>...</root> at content:1"
par Scenario.node[6].nic.phy80211p antennaOffsetX 0m
attr unit m
par Scenario.node[6].nic.phy80211p antennaOffsetY 0m
attr unit m
par Scenario.node[6].nic.phy80211p antennaOffsetZ 1.895m
attr unit m
par Scenario.node[6].nic.phy80211p antennaOffsetYaw 0rad
attr unit rad
par Scenario.node[6].nic.phy80211p analogueModels "<root>...</root> at /home/vagrant/spe-homework-project/Project/simulations//config_5.xml:2"
par Scenario.node[6].nic.phy80211p decider "<root>...</root> at /home/vagrant/spe-homework-project/Project/simulations//config_5.xml:2"
par Scenario.node[6].nic.phy80211p minPowerLevel -110dBm
attr unit dBm
par Scenario.node[6].nic.phy80211p timeRXToTX 0s
attr unit s
par Scenario.node[6].nic.phy80211p timeRXToSleep 0s
attr unit s
par Scenario.node[6].nic.phy80211p timeTXToRX 0s
attr unit s
par Scenario.node[6].nic.phy80211p timeTXToSleep 0s
attr unit s
par Scenario.node[6].nic.phy80211p timeSleepToRX 0s
attr unit s
par Scenario.node[6].nic.phy80211p timeSleepToTX 0s
attr unit s
par Scenario.node[6].nic.phy80211p initialRadioState 0
par Scenario.node[6].nic.phy80211p radioMinAtt 1
par Scenario.node[6].nic.phy80211p radioMaxAtt 0
par Scenario.node[6].nic.phy80211p nbRadioChannels 1
par Scenario.node[6].nic.phy80211p initialRadioChannel 0
par Scenario.node[6].nic.phy80211p ccaThreshold -65dBm
attr unit dBm
par Scenario.node[6].nic.phy80211p collectCollisionStatistics false
par Scenario.node[6].nic.phy80211p allowTxDuringRx false
scalar Scenario.node[6].nic.phy80211p busyTime 0.02485279785811
par Scenario.node[6].nic.mac1609_4 typename "\"org.car2x.veins.modules.mac.ieee80211p.Mac1609_4\""
par Scenario.node[6].nic.mac1609_4 notAffectedByHostState false
par Scenario.node[6].nic.mac1609_4 headerLength 0bit
attr unit bit
par Scenario.node[6].nic.mac1609_4 address "\"auto\""
par Scenario.node[6].nic.mac1609_4 useServiceChannel false
par Scenario.node[6].nic.mac1609_4 serviceChannel 1
par Scenario.node[6].nic.mac1609_4 bitrate 6000000bps
attr unit bps
par Scenario.node[6].nic.mac1609_4 syncOffset 0.0003s
attr unit s
par Scenario.node[6].nic.mac1609_4 txPower 20mW
attr unit mW
par Scenario.node[6].nic.mac1609_4 queueSize 0
par Scenario.node[6].nic.mac1609_4 dot11RTSThreshold 12000bit
attr unit bit
par Scenario.node[6].nic.mac1609_4 dot11ShortRetryLimit 7
par Scenario.node[6].nic.mac1609_4 dot11LongRetryLimit 4
par Scenario.node[6].nic.mac1609_4 ackLength 112bit
attr unit bit
par Scenario.node[6].nic.mac1609_4 useAcks false
par Scenario.node[6].nic.mac1609_4 frameErrorRate 0
par Scenario.node[6].nic.mac1609_4 ackErrorRate 0
scalar Scenario.node[6].nic.mac1609_4 ReceivedUnicastPackets 0
scalar Scenario.node[6].nic.mac1609_4 ReceivedBroadcasts 17489
scalar Scenario.node[6].nic.mac1609_4 SentPackets 747
scalar Scenario.node[6].nic.mac1609_4 SentAcknowledgements 0
scalar Scenario.node[6].nic.mac1609_4 RetriesExceeded 0
scalar Scenario.node[6].nic.mac1609_4 SNIRLostPackets 362
scalar Scenario.node[6].nic.mac1609_4 RXTXLostPackets 0
scalar Scenario.node[6].nic.mac1609_4 TotalLostPackets 362
scalar Scenario.node[6].nic.mac1609_4 DroppedPacketsInMac 0
scalar Scenario.node[6].nic.mac1609_4 TooLittleTime 0
scalar Scenario.node[6].nic.mac1609_4 TimesIntoBackoff 747
scalar Scenario.node[6].nic.mac1609_4 SlotsBackoff 1086
scalar Scenario.node[6].nic.mac1609_4 NumInternalContention 0
scalar Scenario.node[6].nic.mac1609_4 totalBusyTime 1.923254229848
scalar Scenario.node[6].nic.mac1609_4 retriesExceeded:count 0
attr recordingmode count
attr source org_car2x_veins_modules_mac_sigRetriesExceeded
scalar Scenario.node[6].nic.mac1609_4 sentAcks:count 0
attr recordingmode count
attr source org_car2x_veins_modules_mac_sigSentAck
scalar Scenario.node[6].nic.mac1609_4 sentPackets:count 747
attr recordingmode count
attr source org_car2x_veins_modules_mac_sigSentPacket
scalar Scenario.node[6].nic.mac1609_4 collisions:count 0
attr recordingmode count
attr source org_car2x_veins_modules_mac_sigCollision
scalar Scenario.node[6].nic.mac1609_4 channelBusy:timeavg 0.025746375232247
attr recordingmode timeavg
attr source org_car2x_veins_modules_mac_sigChannelBusy
par Scenario.node[6].nic typename "\"org.car2x.veins.modules.nic.Nic80211p\""
par Scenario.node[6].nic connectionManagerName "\"connectionManager\""
par Scenario.node[6].veinsmobility typename "\"org.car2x.veins.modules.mobility.traci.TraCIMobility\""
par Scenario.node[6].veinsmobility notAffectedByHostState true
par Scenario.node[6].veinsmobility x 0
par Scenario.node[6].veinsmobility y 0
par Scenario.node[6].veinsmobility z 1.895
par Scenario.node[6].veinsmobility xOrientation 1
par Scenario.node[6].veinsmobility yOrientation 0
par Scenario.node[6].veinsmobility zOrientation 0
par Scenario.node[6].veinsmobility hostPositionOffset 0m
attr unit m
par Scenario.node[6].veinsmobility setHostSpeed false
par Scenario.node[6].veinsmobility accidentCount 0
par Scenario.node[6].veinsmobility accidentStart 43.4706s
attr unit s
par Scenario.node[6].veinsmobility accidentDuration "uniform(30s, 60s)"
attr unit s
par Scenario.node[6].veinsmobility accidentInterval "uniform(30s, 60s)"
attr unit s
scalar Scenario.node[6].veinsmobility startTime 7.9
scalar Scenario.node[6].veinsmobility totalTime 74.6
scalar Scenario.node[6].veinsmobility stopTime 82.6
scalar Scenario.node[6].veinsmobility minSpeed 0.25083068903605
scalar Scenario.node[6].veinsmobility maxSpeed 14.430163143112
scalar Scenario.node[6].veinsmobility totalDistance 994.67281027654
scalar Scenario.node[6].veinsmobility totalCO2Emission 196.46935577943
par Scenario.node[6] typename "\"org.car2x.veins.nodes.Car\""
par Scenario.node[6] applType "\"TraCIDemo11p\""
par Scenario.node[6] nicType "\"Nic80211p\""
par Scenario.node[6] veinsmobilityType "\"org.car2x.veins.modules.mobility.traci.TraCIMobility\""
par Scenario.node[7].appl typename "\"org.car2x.veins.modules.application.traci.TraCIDemo11p\""
par Scenario.node[7].appl headerLength 80bit
attr unit bit
par Scenario.node[7].appl sendBeacons true
par Scenario.node[7].appl beaconLengthBits 256bit
attr unit bit
par Scenario.node[7].appl beaconUserPriority 7
par Scenario.node[7].appl beaconInterval 0.1s
attr unit s
par Scenario.node[7].appl dataLengthBits 1024bit
attr unit bit
par Scenario.node[7].appl dataOnSch false
par Scenario.node[7].appl dataUserPriority 7
par Scenario.node[7].appl avoidBeaconSynchronization true
par Scenario.node[7].appl sendWSA false
par Scenario.node[7].appl wsaLengthBits 250bit
attr unit bit
par Scenario.node[7].appl wsaInterval 1s
attr unit s
scalar Scenario.node[7].appl generatedWSMs 0
scalar Scenario.node[7].appl receivedWSMs 0
scalar Scenario.node[7].appl generatedBSMs 820
scalar Scenario.node[7].appl receivedBSMs 21253
scalar Scenario.node[7].appl generatedWSAs 0
scalar Scenario.node[7].appl receivedWSAs 0
par Scenario.node[7].nic.phy80211p typename "\"org.car2x.veins.modules.phy.PhyLayer80211p\""
par Scenario.node[7].nic.phy80211p recordStats false
par Scenario.node[7].nic.phy80211p usePropagationDelay true
par Scenario.node[7].nic.phy80211p noiseFloor -98dBm
attr unit dBm
par Scenario.node[7].nic.phy80211p useNoiseFloor true
par Scenario.node[7].nic.phy80211p antenna "<root>...</root> at content:1"
par Scenario.node[7].nic.phy80211p antennaOffsetX 0m
attr unit m
par Scenario.node[7].nic.phy80211p antennaOffsetY 0m
attr unit m
par Scenario.node[7].nic.phy80211p antennaOffsetZ 1.895m
attr unit m
par Scenario.node[7].nic.phy80211p antennaOffsetYaw 0rad
attr unit rad
par Scenario.node[7].nic.phy80211p analogueModels "<root>...</root> at /home/vagrant/spe-homework-project/Project/simulations//config_5.xml:2"
par Scenario.node[7].nic.phy80211p decider "<root>...</root> at /home/vagrant/spe-homework-project/Project/simulations//config_5.xml:2"
par Scenario.node[7].nic.phy80211p minPowerLevel -110dBm
attr unit dBm
par Scenario.node[7].nic.phy80211p timeRXToTX 0s
attr unit s
par Scenario.node[7].nic.phy80211p timeRXToSleep 0s
attr unit s
par Scenario.node[7].nic.phy80211p timeTXToRX 0s
attr unit s
par Scenario.node[7].nic.phy80211p timeTXToSleep 0s
attr unit s
par Scenario.node[7].nic.phy80211p timeSleepToRX 0s
attr unit s
par Scenario.node[7].nic.phy80211p timeSleepToTX 0s
attr unit s
par Scenario.node[7].nic.phy80211p initialRadioState 0
par Scenario.node[7].nic.phy80211p radioMinAtt 1
par Scenario.node[7].nic.phy80211p radioMaxAtt 0
par Scenario.node[7].nic.phy80211p nbRadioChannels 1
par Scenario.node[7].nic.phy80211p initialRadioChannel 0
par Scenario.node[7].nic.phy80211p ccaThreshold -65dBm
attr unit dBm
par Scenario.node[7].nic.phy80211p collectCollisionStatistics false
par Scenario.node[7].nic.phy80211p allowTxDuringRx false
scalar Scenario.node[7].nic.phy80211p busyTime 0.027325365853667
par Scenario.node[7].nic.mac1609_4 typename "\"org.car2x.veins.modules.mac.ieee80211p.Mac1609_4\""
par Scenario.node[7].nic.mac1609_4 notAffectedByHostState false
par Scenario.node[7].nic.mac1609_4 headerLength 0bit
attr unit bit
par Scenario.node[7].nic.mac1609_4 address "\"auto\""
par Scenario.node[7].nic.mac1609_4 useServiceChannel false
par Scenario.node[7].nic.mac1609_4 serviceChannel 1
par Scenario.node[7].nic.mac1609_4 bitrate 6000000bps
attr unit bps
par Scenario.node[7].nic.mac1609_4 syncOffset 0.0003s
attr unit s
par Scenario.node[7].nic.mac1609_4 txPower 20mW
attr unit mW
par Scenario.node[7].nic.mac1609_4 queueSize 0
par Scenario.node[7].nic.mac1609_4 dot11RTSThreshold 12000bit
attr unit bit
par Scenario.node[7].nic.mac1609_4 dot11ShortRetryLimit 7
par Scenario.node[7].nic.mac1609_4 dot11LongRetryLimit 4
par Scenario.node[7].nic.mac1609_4 ackLength 112bit
attr unit bit
par Scenario.node[7].nic.mac1609_4 useAcks false
par Scenario.node[7].nic.mac1609_4 frameErrorRate 0
par Scenario.node[7].nic.mac1609_4 ackErrorRate 0
scalar Scenario.node[7].nic.mac1609_4 ReceivedUnicastPackets 0
scalar Scenario.node[7].nic.mac1609_4 ReceivedBroadcasts 21253
scalar Scenario.node[7].nic.mac1609_4 SentPackets 820
scalar Scenario.node[7].nic.mac1609_4 SentAcknowledgements 0
scalar Scenario.node[7].nic.mac1609_4 RetriesExceeded 0
scalar Scenario.node[7].nic.mac1609_4 SNIRLostPackets 292
scalar Scenario.node[7].nic.mac1609_4 RXTXLostPackets 0
scalar Scenario.node[7].nic.mac1609_4 TotalLostPackets 292
scalar Scenario.node[7].nic.mac1609_4 DroppedPacketsInMac 0
scalar Scenario.node[7].nic.mac1609_4 TooLittleTime 0
scalar Scenario.node[7].nic.mac1609_4 TimesIntoBackoff 820
scalar Scenario.node[7].nic.mac1609_4 SlotsBackoff 1263
scalar Scenario.node[7].nic.mac1609_4 NumInternalContention 0
scalar Scenario.node[7].nic.mac1609_4 totalBusyTime 2.315521425042
scalar Scenario.node[7].nic.mac1609_4 retriesExceeded:count 0
attr recordingmode count
attr source org_car2x_veins_modules_mac_sigRetriesExceeded
scalar Scenario.node[7].nic.mac1609_4 sentAcks:count 0
attr recordingmode count
attr source org_car2x_veins_modules_mac_sigSentAck
scalar Scenario.node[7].nic.mac1609_4 sentPackets:count 820
attr recordingmode count
attr source org_car2x_veins_modules_mac_sigSentPacket
scalar Scenario.node[7].nic.mac1609_4 collisions:count 0
attr recordingmode count
attr source org_car2x_veins_modules_mac_sigCollision
scalar Scenario.node[7].nic.mac1609_4 channelBusy:timeavg 0.028238066159056
attr recordingmode timeavg
attr source org_car2x_veins_modules_mac_sigChannelBusy
par Scenario.node[7].nic typename "\"org.car2x.veins.modules.nic.Nic80211p\""
par Scenario.node[7].nic connectionManagerName "\"connectionManager\""
par Scenario.node[7].veinsmobility typename "\"org.car2x.veins.modules.mobility.traci.TraCIMobility\""
par Scenario.node[7].veinsmobility notAffectedByHostState true
par Scenario.node[7].veinsmobility x 0
par Scenario.node[7].veinsmobility y 0
par Scenario.node[7].veinsmobility z 1.895
par Scenario.node[7].veinsmobility xOrientation 1
par Scenario.node[7].veinsmobility yOrientation 0
par Scenario.node[7].veinsmobility zOrientation 0
par Scenario.node[7].veinsmobility hostPositionOffset 0m
attr unit m
par Scenario.node[7].veinsmobility setHostSpeed false
par Scenario.node[7].veinsmobility accidentCount 0
par Scenario.node[7].veinsmobility accidentStart 58.0905s
attr unit s
par Scenario.node[7].veinsmobility accidentDuration "uniform(30s, 60s)"
attr unit s
par Scenario.node[7].veinsmobility accidentInterval "uniform(30s, 60s)"
attr unit s
scalar Scenario.node[7].veinsmobility startTime 9.3
scalar Scenario.node[7].veinsmobility totalTime 81.9
scalar Scenario.node[7].veinsmobility stopTime 91.3
scalar Scenario.node[7].veinsmobility minSpeed 0.25824593932438
scalar Scenario.node[7].veinsmobility maxSpeed 13.870129638631
scalar Scenario.node[7].veinsmobility totalDistance 994.63187043822
scalar Scenario.node[7].veinsmobility totalCO2Emission 207.6224043002
par Scenario.node[7] typename "\"org.car2x.veins.nodes.Car\""
par Scenario.node[7] applType "\"TraCIDemo11p\""
par Scenario.node[7] nicType "\"Nic80211p\""
par Scenario.node[7] veinsmobilityType "\"org.car2x.veins.modules.mobility.traci.TraCIMobility\""
par Scenario.node[11].appl typename "\"org.car2x.veins.modules.application.traci.TraCIDemo11p\""
par Scenario.node[11].appl headerLength 80bit
attr unit bit
par Scenario.node[11].appl sendBeacons true
par Scenario.node[11].appl beaconLengthBits 256bit
attr unit bit
par Scenario.node[11].appl beaconUserPriority 7
par Scenario.node[11].appl beaconInterval 0.1s
attr unit s
par Scenario.node[11].appl dataLengthBits 1024bit
attr unit bit
par Scenario.node[11].appl dataOnSch false
par Scenario.node[11].appl dataUserPriority 7
par Scenario.node[11].appl avoidBeaconSynchronization true
par Scenario.node[11].appl sendWSA false
par Scenario.node[11].appl wsaLengthBits 250bit
attr unit bit
par Scenario.node[11].appl wsaInterval 1s
attr unit s
scalar Scenario.node[11].appl generatedWSMs 0
scalar Scenario.node[11].appl receivedWSMs 0
scalar Scenario.node[11].appl generatedBSMs 848
scalar Scenario.node[11].appl receivedBSMs 24446
scalar Scenario.node[11].appl generatedWSAs 0
scalar Scenario.node[11].appl receivedWSAs 0
par Scenario.node[11].nic.phy80211p typename "\"org.car2x.veins.modules.phy.PhyLayer80211p\""
par Scenario.node[11].nic.phy80211p recordStats false
par Scenario.node[11].nic.phy80211p usePropagationDelay true
par Scenario.node[11].nic.phy80211p noiseFloor -98dBm
attr unit dBm
par Scenario.node[11].nic.phy80211p useNoiseFloor true
par Scenario.node[11].nic.phy80211p antenna "<root>...</root> at content:1"
par Scenario.node[11].nic.phy80211p antennaOffsetX 0m
attr unit m
par Scenario.node[11].nic.phy80211p antennaOffsetY 0m
attr unit m
par Scenario.node[11].nic.phy80211p antennaOffsetZ 1.895m
attr unit m
par Scenario.node[11].nic.phy80211p antennaOffsetYaw 0rad
attr unit rad
par Scenario.node[11].nic.phy80211p analogueModels "<root>...</root> at /home/vagrant/spe-homework-project/Project/simulations//config_5.xml:2"
par Scenario.node[11].nic.phy80211p decider "<root>...</root> at /home/vagrant/spe-homework-project/Project/simulations//config_5.xml:2"
par Scenario.node[11].nic.phy80211p minPowerLevel -110dBm
attr unit dBm
par Scenario.node[11].nic.phy80211p timeRXToTX 0s
attr unit s
par Scenario.node[11].nic.phy80211p timeRXToSleep 0s
attr unit s
par Scenario.node[11].nic.phy80211p timeTXToRX 0s
attr unit s
par Scenario.node[11].nic.phy80211p timeTXToSleep 0s
attr unit s
par Scenario.node[11].nic.phy80211p timeSleepToRX 0s
attr unit s
par Scenario.node[11].nic.phy80211p timeSleepToTX 0s
attr unit s
par Scenario.node[11].nic.phy80211p initialRadioState 0
par Scenario.node[11].nic.phy80211p radioMinAtt 1
par Scenario.node[11].nic.phy80211p radioMaxAtt 0
par Scenario.node[11].nic.phy80211p nbRadioChannels 1
par Scenario.node[11].nic.phy80211p initialRadioChannel 0
par Scenario.node[11].nic.phy80211p ccaThreshold -65dBm
attr unit dBm
par Scenario.node[11].nic.phy80211p collectCollisionStatistics false
par Scenario.node[11].nic.phy80211p allowTxDuringRx false
scalar Scenario.node[11].nic.phy80211p busyTime 0.030558584905664
par Scenario.node[11].nic.mac1609_4 typename "\"org.car2x.veins.modules.mac.ieee80211p.Mac1609_4\""
par Scenario.node[11].nic.mac1609_4 notAffectedByHostState false
par Scenario.node[11].nic.mac1609_4 headerLength 0bit
attr unit bit
par Scenario.node[11].nic.mac1609_4 address "\"auto\""
par Scenario.node[11].nic.mac1609_4 useServiceChannel false
par Scenario.node[11].nic.mac1609_4 serviceChannel 1
par Scenario.node[11].nic.mac1609_4 bitrate 6000000bps
attr unit bps
par Scenario.node[11].nic.mac1609_4 syncOffset 0.0003s
attr unit s
par Scenario.node[11].nic.mac1609_4 txPower 20mW
attr unit mW
par Scenario.node[11].nic.mac1609_4 queueSize 0
par Scenario.node[11].nic.mac1609_4 dot11RTSThreshold 12000bit
attr unit bit
par Scenario.node[11].nic.mac1609_4 dot11ShortRetryLimit 7
par Scenario.node[11].nic.mac1609_4 dot11LongRetryLimit 4
par Scenario.node[11].nic.mac1609_4 ackLength 112bit
attr unit bit
par Scenario.node[11].nic.mac1609_4 useAcks false
par Scenario.node[11].nic.mac1609_4 frameErrorRate 0
par Scenario.node[11].nic.mac1609_4 ackErrorRate 0
scalar Scenario.node[11].nic.mac1609_4 ReceivedUnicastPackets 0
scalar Scenario.node[11].nic.mac1609_4 ReceivedBroadcasts 24446
scalar Scenario.node[11].nic.mac1609_4 SentPackets 848
scalar Scenario.node[11].nic.mac1609_4 SentAcknowledgements 0
scalar Scenario.node[11].nic.mac1609_4 RetriesExceeded 0
scalar Scenario.node[11].nic.mac1609_4 SNIRLostPackets 471
scalar Scenario.node[11].nic.mac1609_4 RXTXLostPackets 0
scalar Scenario.node[11].nic.mac1609_4 TotalLostPackets 471
scalar Scenario.node[11].nic.mac1609_4 DroppedPacketsInMac 0
scalar Scenario.node[11].nic.mac1609_4 TooLittleTime 0
scalar Scenario.node[11].nic.mac1609_4 TimesIntoBackoff 848
scalar Scenario.node[11].nic.mac1609_4 SlotsBackoff 1244
scalar Scenario.node[11].nic.mac1609_4 NumInternalContention 0
scalar Scenario.node[11].nic.mac1609_4 totalBusyTime 2.667595605466
scalar Scenario.node[11].nic.mac1609_4 retriesExceeded:count 0
attr recordingmode count
attr source org_car2x_veins_modules_mac_sigRetriesExceeded
scalar Scenario.node[11].nic.mac1609_4 sentAcks:count 0
attr recordingmode count
attr source org_car2x_veins_modules_mac_sigSentAck
scalar Scenario.node[11].nic.mac1609_4 sentPackets:count 848
attr recordingmode count
attr source org_car2x_veins_modules_mac_sigSentPacket
scalar Scenario.node[11].nic.mac1609_4 collisions:count 0
attr recordingmode count
attr source org_car2x_veins_modules_mac_sigCollision
scalar Scenario.node[11].nic.mac1609_4 channelBusy:timeavg 0.031457495347478
attr recordingmode timeavg
attr source org_car2x_veins_modules_mac_sigChannelBusy
par Scenario.node[11].nic typename "\"org.car2x.veins.modules.nic.Nic80211p\""
par Scenario.node[11].nic connectionManagerName "\"connectionManager\""
par Scenario.node[11].veinsmobility typename "\"org.car2x.veins.modules.mobility.traci.TraCIMobility\""
par Scenario.node[11].veinsmobility notAffectedByHostState true
par Scenario.node[11].veinsmobility x 0
par Scenario.node[11].veinsmobility y 0
par Scenario.node[11].veinsmobility z 1.895
par Scenario.node[11].veinsmobility xOrientation 1
par Scenario.node[11].veinsmobility yOrientation 0
par Scenario.node[11].veinsmobility zOrientation 0
par Scenario.node[11].veinsmobility hostPositionOffset 0m
attr unit m
par Scenario.node[11].veinsmobility setHostSpeed false
par Scenario.node[11].veinsmobility accidentCount 0
par Scenario.node[11].veinsmobility accidentStart 45.8971s
attr unit s
par Scenario.node[11].veinsmobility accidentDuration "uniform(30s, 60s)"
attr unit s
par Scenario.node[11].veinsmobility accidentInterval "uniform(30s, 60s)"
attr unit s
scalar Scenario.node[11].veinsmobility startTime 14.5
scalar Scenario.node[11].veinsmobility totalTime 84.7
scalar Scenario.node[11].veinsmobility stopTime 99.3
scalar Scenario.node[11].veinsmobility minSpeed 0.25361060206662
scalar Scenario.node[11].veinsmobility maxSpeed 12.213278715983
scalar Scenario.node[11].veinsmobility totalDistance 993.85016546159
scalar Scenario.node[11].veinsmobility totalCO2Emission 195.10953475884
par Scenario.node[11] typename "\"org.car2x.veins.nodes.Car\""
par Scenario.node[11] applType "\"TraCIDemo11p\""
par Scenario.node[11] nicType "\"Nic80211p\""
par Scenario.node[11] veinsmobilityType "\"org.car2x.veins.modules.mobility.traci.TraCIMobility\""
par Scenario.obstacles typename "\"org.car2x.veins.modules.obstacle.ObstacleControl\""
par Scenario.obstacles obstacles "<obstacles/> at content:1"
par Scenario.obstacles gridCellSize 250
par Scenario.annotations typename "\"org.car2x.veins.modules.world.annotations.AnnotationManager\""
par Scenario.annotations draw false
par Scenario.annotations annotations "<annotations/> at content:1"
par Scenario.connectionManager typename "\"org.car2x.veins.base.connectionManager.ConnectionManager\""
par Scenario.connectionManager sendDirect true
par Scenario.connectionManager maxInterfDist 500m
attr unit m
par Scenario.connectionManager drawMaxIntfDist false
par Scenario.world typename "\"org.car2x.veins.base.modules.BaseWorldUtility\""
par Scenario.world playgroundSizeX 1100m
attr unit m
par Scenario.world playgroundSizeY 200m
attr unit m
par Scenario.world playgroundSizeZ 50m
attr unit m
par Scenario.world useTorus false
par Scenario.world use2D false
par Scenario.manager typename "\"org.car2x.veins.modules.mobility.traci.TraCIScenarioManagerLaunchd\""
par Scenario.manager connectAt 0s
attr unit s
par Scenario.manager firstStepAt -1s
attr unit s
par Scenario.manager updateInterval 0.1s
attr unit s
par Scenario.manager moduleType "\"org.car2x.veins.nodes.Car\""
par Scenario.manager moduleName "\"node\""
par Scenario.manager moduleDisplayString "\"*='i=veins/node/car;is=vs'\""
par Scenario.manager trafficLightModuleType "\"\""
par Scenario.manager trafficLightModuleName "\"tls\""
par Scenario.manager trafficLightFilter "\"\""
par Scenario.manager trafficLightModuleDisplayString "\"i=veins/node/trafficlight;is=vs\""
par Scenario.manager host "\"localhost\""
par Scenario.manager port 9999
par Scenario.manager seed -1
par Scenario.manager autoShutdown true
par Scenario.manager margin 25
par Scenario.manager roiRoads "\"\""
par Scenario.manager roiRects "\"\""
par Scenario.manager penetrationRate 1
par Scenario.manager ignoreGuiCommands false
par Scenario.manager order -1
par Scenario.manager ignoreUnknownSubscriptionResults false
par Scenario.manager launchConfig "<launch>...</launch> at /home/vagrant/spe-homework-project/Project/simulations//straight_road.launchd.xml:1"
scalar Scenario.manager roiArea 0
par Scenario.roadsCanvasVisualizer typename "\"org.car2x.veins.visualizer.roads.RoadsCanvasVisualizer\""
par Scenario.roadsCanvasVisualizer enabled true
par Scenario.roadsCanvasVisualizer lineZIndex -1
par Scenario.roadsCanvasVisualizer lineColor "\"firebrick4\""
par Scenario.roadsCanvasVisualizer lineWidth 1
par Scenario.roadsCanvasVisualizer lineWidthZoom false
par Scenario.node[0].appl typename "\"org.car2x.veins.modules.application.traci.TraCIDemo11p\""
par Scenario.node[0].appl headerLength 80bit
attr unit bit
par Scenario.node[0].appl sendBeacons true
par Scenario.node[0].appl beaconLengthBits 256bit
attr unit bit
par Scenario.node[0].appl beaconUserPriority 7
par Scenario.node[0].appl beaconInterval 0.1s
attr unit s
par Scenario.node[0].appl dataLengthBits 1024bit
attr unit bit
par Scenario.node[0].appl dataOnSch false
par Scenario.node[0].appl dataUserPriority 7
par Scenario.node[0].appl avoidBeaconSynchronization true
par Scenario.node[0].appl sendWSA false
par Scenario.node[0].appl wsaLengthBits 250bit
attr unit bit
par Scenario.node[0].appl wsaInterval 1s
attr unit s
scalar Scenario.node[0].appl generatedWSMs 0
scalar Scenario.node[0].appl receivedWSMs 0
scalar Scenario.node[0].appl generatedBSMs 999
scalar Scenario.node[0].appl receivedBSMs 23047
scalar Scenario.node[0].appl generatedWSAs 0
scalar Scenario.node[0].appl receivedWSAs 0
par Scenario.node[0].nic.phy80211p typename "\"org.car2x.veins.modules.phy.PhyLayer80211p\""
par Scenario.node[0].nic.phy80211p recordStats false
par Scenario.node[0].nic.phy80211p usePropagationDelay true
par Scenario.node[0].nic.phy80211p noiseFloor -98dBm
attr unit dBm
par Scenario.node[0].nic.phy80211p useNoiseFloor true
par Scenario.node[0].nic.phy80211p antenna "<root>...</root> at content:1"
par Scenario.node[0].nic.phy80211p antennaOffsetX 0m
attr unit m
par Scenario.node[0].nic.phy80211p antennaOffsetY 0m
attr unit m
par Scenario.node[0].nic.phy80211p antennaOffsetZ 1.895m
attr unit m
par Scenario.node[0].nic.phy80211p antennaOffsetYaw 0rad
attr unit rad
par Scenario.node[0].nic.phy80211p analogueModels "<root>...</root> at /home/vagrant/spe-homework-project/Project/simulations//config_5.xml:2"
par Scenario.node[0].nic.phy80211p decider "<root>...</root> at /home/vagrant/spe-homework-project/Project/simulations//config_5.xml:2"
par Scenario.node[0].nic.phy80211p minPowerLevel -110dBm
attr unit dBm
par Scenario.node[0].nic.phy80211p timeRXToTX 0s
attr unit s
par Scenario.node[0].nic.phy80211p timeRXToSleep 0s
attr unit s
par Scenario.node[0].nic.phy80211p timeTXToRX 0s
attr unit s
par Scenario.node[0].nic.phy80211p timeTXToSleep 0s
attr unit s
par Scenario.node[0].nic.phy80211p timeSleepToRX 0s
attr unit s
par Scenario.node[0].nic.phy80211p timeSleepToTX 0s
attr unit s
par Scenario.node[0].nic.phy80211p initialRadioState 0
par Scenario.node[0].nic.phy80211p radioMinAtt 1
par Scenario.node[0].nic.phy80211p radioMaxAtt 0
par Scenario.node[0].nic.phy80211p nbRadioChannels 1
par Scenario.node[0].nic.phy80211p initialRadioChannel 0
par Scenario.node[0].nic.phy80211p ccaThreshold -65dBm
attr unit dBm
par Scenario.node[0].nic.phy80211p collectCollisionStatistics false
par Scenario.node[0].nic.phy80211p allowTxDuringRx false
scalar Scenario.node[0].nic.phy80211p busyTime 0.024872552552557
par Scenario.node[0].nic.mac1609_4 typename "\"org.car2x.veins.modules.mac.ieee80211p.Mac1609_4\""
par Scenario.node[0].nic.mac1609_4 notAffectedByHostState false
par Scenario.node[0].nic.mac1609_4 headerLength 0bit
attr unit bit
par Scenario.node[0].nic.mac1609_4 address "\"auto\""
par Scenario.node[0].nic.mac1609_4 useServiceChannel false
par Scenario.node[0].nic.mac1609_4 serviceChannel 1
par Scenario.node[0].nic.mac1609_4 bitrate 6000000bps
attr unit bps
par Scenario.node[0].nic.mac1609_4 syncOffset 0.0003s
attr unit s
par Scenario.node[0].nic.mac1609_4 txPower 20mW
attr unit mW
par Scenario.node[0].nic.mac1609_4 queueSize 0
par Scenario.node[0].nic.mac1609_4 dot11RTSThreshold 12000bit
attr unit bit
par Scenario.node[0].nic.mac1609_4 dot11ShortRetryLimit 7
par Scenario.node[0].nic.mac1609_4 dot11LongRetryLimit 4
par Scenario.node[0].nic.mac1609_4 ackLength 112bit
attr unit bit
par Scenario.node[0].nic.mac1609_4 useAcks false
par Scenario.node[0].nic.mac1609_4 frameErrorRate 0
par Scenario.node[0].nic.mac1609_4 ackErrorRate 0
scalar Scenario.node[0].nic.mac1609_4 ReceivedUnicastPackets 0
scalar Scenario.node[0].nic.mac1609_4 ReceivedBroadcasts 23047
scalar Scenario.node[0].nic.mac1609_4 SentPackets 999
scalar Scenario.node[0].nic.mac1609_4 SentAcknowledgements 0
scalar Scenario.node[0].nic.mac1609_4 RetriesExceeded 0
scalar Scenario.node[0].nic.mac1609_4 SNIRLostPackets 845
scalar Scenario.node[0].nic.mac1609_4 RXTXLostPackets 0
scalar Scenario.node[0].nic.mac1609_4 TotalLostPackets 845
scalar Scenario.node[0].nic.mac1609_4 DroppedPacketsInMac 0
scalar Scenario.node[0].nic.mac1609_4 TooLittleTime 0
scalar Scenario.node[0].nic.mac1609_4 TimesIntoBackoff 999
scalar Scenario.node[0].nic.mac1609_4 SlotsBackoff 1474
scalar Scenario.node[0].nic.mac1609_4 NumInternalContention 0
scalar Scenario.node[0].nic.mac1609_4 totalBusyTime 2.566050560687
scalar Scenario.node[0].nic.mac1609_4 retriesExceeded:count 0
attr recordingmode count
attr source org_car2x_veins_modules_mac_sigRetriesExceeded
scalar Scenario.node[0].nic.mac1609_4 sentAcks:count 0
attr recordingmode count
attr source org_car2x_veins_modules_mac_sigSentAck
scalar Scenario.node[0].nic.mac1609_4 sentPackets:count 999
attr recordingmode count
attr source org_car2x_veins_modules_mac_sigSentPacket
scalar Scenario.node[0].nic.mac1609_4 collisions:count 0
attr recordingmode count
attr source org_car2x_veins_modules_mac_sigCollision
scalar Scenario.node[0].nic.mac1609_4 channelBusy:timeavg 0.025686191798672
attr recordingmode timeavg
attr source org_car2x_veins_modules_mac_sigChannelBusy
par Scenario.node[0].nic typename "\"org.car2x.veins.modules.nic.Nic80211p\""
par Scenario.node[0].nic connectionManagerName "\"connectionManager\""
par Scenario.node[0].veinsmobility typename "\"org.car2x.veins.modules.mobility.traci.TraCIMobility\""
par Scenario.node[0].veinsmobility notAffectedByHostState true
par Scenario.node[0].veinsmobility x 0
par Scenario.node[0].veinsmobility y 0
par Scenario.node[0].veinsmobility z 1.895
par Scenario.node[0].veinsmobility xOrientation 1
par Scenario.node[0].veinsmobility yOrientation 0
par Scenario.node[0].veinsmobility zOrientation 0
par Scenario.node[0].veinsmobility hostPositionOffset 0m
attr unit m
par Scenario.node[0].veinsmobility setHostSpeed false
par Scenario.node[0].veinsmobility accidentCount 0
par Scenario.node[0].veinsmobility accidentStart 32.2892s
attr unit s
par Scenario.node[0].veinsmobility accidentDuration "uniform(30s, 60s)"
attr unit s
par Scenario.node[0].veinsmobility accidentInterval "uniform(30s, 60s)"
attr unit s
scalar Scenario.node[0].veinsmobility startTime 0.1
scalar Scenario.node[0].veinsmobility totalTime 99.9
scalar Scenario.node[0].veinsmobility stopTime 100
scalar Scenario.node[0].veinsmobility minSpeed 0.24997283163923
scalar Scenario.node[0].veinsmobility maxSpeed 15.374712733184
scalar Scenario.node[0].veinsmobility totalDistance 1362.4788207
scalar Scenario.node[0].veinsmobility totalCO2Emission 276.94728178136
par Scenario.node[0] typename "\"org.car2x.veins.nodes.Car\""
par Scenario.node[0] applType "\"TraCIDemo11p\""
par Scenario.node[0] nicType "\"Nic80211p\""
par Scenario.node[0] veinsmobilityType "\"org.car2x.veins.modules.mobility.traci.TraCIMobility\""
par Scenario.node[4].appl typename "\"org.car2x.veins.modules.application.traci.TraCIDemo11p\""
par Scenario.node[4].appl headerLength 80bit
attr unit bit
par Scenario.node[4].appl sendBeacons true
par Scenario.node[4].appl beaconLengthBits 256bit
attr unit bit
par Scenario.node[4].appl beaconUserPriority 7
par Scenario.node[4].appl beaconInterval 0.1s
attr unit s
par Scenario.node[4].appl dataLengthBits 1024bit
attr unit bit
par Scenario.node[4].appl dataOnSch false
par Scenario.node[4].appl dataUserPriority 7
par Scenario.node[4].appl avoidBeaconSynchronization true
par Scenario.node[4].appl sendWSA false
par Scenario.node[4].appl wsaLengthBits 250bit
attr unit bit
par Scenario.node[4].appl wsaInterval 1s
attr unit s
scalar Scenario.node[4].appl generatedWSMs 0
scalar Scenario.node[4].appl receivedWSMs 0
scalar Scenario.node[4].appl generatedBSMs 947
scalar Scenario.node[4].appl receivedBSMs 23159
scalar Scenario.node[4].appl generatedWSAs 0
scalar Scenario.node[4].appl receivedWSAs 0
par Scenario.node[4].nic.phy80211p typename "\"org.car2x.veins.modules.phy.PhyLayer80211p\""
par Scenario.node[4].nic.phy80211p recordStats false
par Scenario.node[4].nic.phy80211p usePropagationDelay true
par Scenario.node[4].nic.phy80211p noiseFloor -98dBm
attr unit dBm
par Scenario.node[4].nic.phy80211p useNoiseFloor true
par Scenario.node[4].nic.phy80211p antenna "<root>...</root> at content:1"
par Scenario.node[4].nic.phy80211p antennaOffsetX 0m
attr unit m
par Scenario.node[4].nic.phy80211p antennaOffsetY 0m
attr unit m
par Scenario.node[4].nic.phy80211p antennaOffsetZ 1.895m
attr unit m
par Scenario.node[4].nic.phy80211p antennaOffsetYaw 0rad
attr unit rad
par Scenario.node[4].nic.phy80211p analogueModels "<root>...</root> at /home/vagrant/spe-homework-project/Project/simulations//config_5.xml:2"
par Scenario.node[4].nic.phy80211p decider "<root>...</root> at /home/vagrant/spe-homework-project/Project/simulations//config_5.xml:2"
par Scenario.node[4].nic.phy80211p minPowerLevel -110dBm
attr unit dBm
par Scenario.node[4].nic.phy80211p timeRXToTX 0s
attr unit s
par Scenario.node[4].nic.phy80211p timeRXToSleep 0s
attr unit s
par Scenario.node[4].nic.phy80211p timeTXToRX 0s
attr unit s
par Scenario.node[4].nic.phy80211p timeTXToSleep 0s
attr unit s
par Scenario.node[4].nic.phy80211p timeSleepToRX 0s
attr unit s
par Scenario.node[4].nic.phy80211p timeSleepToTX 0s
attr unit s
par Scenario.node[4].nic.phy80211p initialRadioState 0
par Scenario.node[4].nic.phy80211p radioMinAtt 1
par Scenario.node[4].nic.phy80211p radioMaxAtt 0
par Scenario.node[4].nic.phy80211p nbRadioChannels 1
par Scenario.node[4].nic.phy80211p initialRadioChannel 0
par Scenario.node[4].nic.phy80211p ccaThreshold -65dBm
attr unit dBm
par Scenario.node[4].nic.phy80211p collectCollisionStatistics false
par Scenario.node[4].nic.phy80211p allowTxDuringRx false
scalar Scenario.node[4].nic.phy80211p busyTime 0.025956071805707
par Scenario.node[4].nic.mac1609_4 typename "\"org.car2x.veins.modules.mac.ieee80211p.Mac1609_4\""
par Scenario.node[4].nic.mac1609_4 notAffectedByHostState false
par Scenario.node[4].nic.mac1609_4 headerLength 0bit
attr unit bit
par Scenario.node[4].nic.mac1609_4 address "\"auto\""
par Scenario.node[4].nic.mac1609_4 useServiceChannel false
par Scenario.node[4].nic.mac1609_4 serviceChannel 1
par Scenario.node[4].nic.mac1609_4 bitrate 6000000bps
attr unit bps
par Scenario.node[4].nic.mac1609_4 syncOffset 0.0003s
attr unit s
par Scenario.node[4].nic.mac1609_4 txPower 20mW
attr unit mW
par Scenario.node[4].nic.mac1609_4 queueSize 0
par Scenario.node[4].nic.mac1609_4 dot11RTSThreshold 12000bit
attr unit bit
par Scenario.node[4].nic.mac1609_4 dot11ShortRetryLimit 7
par Scenario.node[4].nic.mac1609_4 dot11LongRetryLimit 4
par Scenario.node[4].nic.mac1609_4 ackLength 112bit
attr unit bit
par Scenario.node[4].nic.mac1609_4 useAcks false
par Scenario.node[4].nic.mac1609_4 frameErrorRate 0
par Scenario.node[4].nic.mac1609_4 ackErrorRate 0
scalar Scenario.node[4].nic.mac1609_4 ReceivedUnicastPackets 0
scalar Scenario.node[4].nic.mac1609_4 ReceivedBroadcasts 23159
scalar Scenario.node[4].nic.mac1609_4 SentPackets 947
scalar Scenario.node[4].nic.mac1609_4 SentAcknowledgements 0
scalar Scenario.node[4].nic.mac1609_4 RetriesExceeded 0
scalar Scenario.node[4].nic.mac1609_4 SNIRLostPackets 476
scalar Scenario.node[4].nic.mac1609_4 RXTXLostPackets 0
scalar Scenario.node[4].nic.mac1609_4 TotalLostPackets 476
scalar Scenario.node[4].nic.mac1609_4 DroppedPacketsInMac 0
scalar Scenario.node[4].nic.mac1609_4 TooLittleTime 0
scalar Scenario.node[4].nic.mac1609_4 TimesIntoBackoff 947
scalar Scenario.node[4].nic.mac1609_4 SlotsBackoff 1426
scalar Scenario.node[4].nic.mac1609_4 NumInternalContention 0
scalar Scenario.node[4].nic.mac1609_4 totalBusyTime 2.541278520747
scalar Scenario.node[4].nic.mac1609_4 retriesExceeded:count 0
attr recordingmode count
attr source org_car2x_veins_modules_mac_sigRetriesExceeded
scalar Scenario.node[4].nic.mac1609_4 sentAcks:count 0
attr recordingmode count
attr source org_car2x_veins_modules_mac_sigSentAck
scalar Scenario.node[4].nic.mac1609_4 sentPackets:count 947
attr recordingmode count
attr source org_car2x_veins_modules_mac_sigSentPacket
scalar Scenario.node[4].nic.mac1609_4 collisions:count 0
attr recordingmode count
attr source org_car2x_veins_modules_mac_sigCollision
scalar Scenario.node[4].nic.mac1609_4 channelBusy:timeavg 0.026835042457733
attr recordingmode timeavg
attr source org_car2x_veins_modules_mac_sigChannelBusy
par Scenario.node[4].nic typename "\"org.car2x.veins.modules.nic.Nic80211p\""
par Scenario.node[4].nic connectionManagerName "\"connectionManager\""
par Scenario.node[4].veinsmobility typename "\"org.car2x.veins.modules.mobility.traci.TraCIMobility\""
par Scenario.node[4].veinsmobility notAffectedByHostState true
par Scenario.node[4].veinsmobility x 0
par Scenario.node[4].veinsmobility y 0
par Scenario.node[4].veinsmobility z 1.895
par Scenario.node[4].veinsmobility xOrientation 1
par Scenario.node[4].veinsmobility yOrientation 0
par Scenario.node[4].veinsmobility zOrientation 0
par Scenario.node[4].veinsmobility hostPositionOffset 0m
attr unit m
par Scenario.node[4].veinsmobility setHostSpeed false
par Scenario.node[4].veinsmobility accidentCount 0
par Scenario.node[4].veinsmobility accidentStart 33.2063s
attr unit s
par Scenario.node[4].veinsmobility accidentDuration "uniform(30s, 60s)"
attr unit s
par Scenario.node[4].veinsmobility accidentInterval "uniform(30s, 60s)"
attr unit s
scalar Scenario.node[4].veinsmobility startTime 5.3
scalar Scenario.node[4].veinsmobility totalTime 94.7
scalar Scenario.node[4].veinsmobility stopTime 100
scalar Scenario.node[4].veinsmobility minSpeed 0.2528813800409
scalar Scenario.node[4].veinsmobility maxSpeed 14.273226882341
scalar Scenario.node[4].veinsmobility totalDistance 1240.6420516678
scalar Scenario.node[4].veinsmobility totalCO2Emission 258.2189989565
par Scenario.node[4] typename "\"org.car2x.veins.nodes.Car\""
par Scenario.node[4] applType "\"TraCIDemo11p\""
par Scenario.node[4] nicType "\"Nic80211p\""
par Scenario.node[4] veinsmobilityType "\"org.car2x.veins.modules.mobility.traci.TraCIMobility\""
par Scenario.node[5].appl typename "\"org.car2x.veins.modules.application.traci.TraCIDemo11p\""
par Scenario.node[5].appl headerLength 80bit
attr unit bit
par Scenario.node[5].appl sendBeacons true
par Scenario.node[5].appl beaconLengthBits 256bit
attr unit bit
par Scenario.node[5].appl beaconUserPriority 7
par Scenario.node[5].appl beaconInterval 0.1s
attr unit s
par Scenario.node[5].appl dataLengthBits 1024bit
attr unit bit
par Scenario.node[5].appl dataOnSch false
par Scenario.node[5].appl dataUserPriority 7
par Scenario.node[5].appl avoidBeaconSynchronization true
par Scenario.node[5].appl sendWSA false
par Scenario.node[5].appl wsaLengthBits 250bit
attr unit bit
par Scenario.node[5].appl wsaInterval 1s
attr unit s
scalar Scenario.node[5].appl generatedWSMs 0
scalar Scenario.node[5].appl receivedWSMs 0
scalar Scenario.node[5].appl generatedBSMs 933
scalar Scenario.node[5].appl receivedBSMs 23615
scalar Scenario.node[5].appl generatedWSAs 0
scalar Scenario.node[5].appl receivedWSAs 0
par Scenario.node[5].nic.phy80211p typename "\"org.car2x.veins.modules.phy.PhyLayer80211p\""
par Scenario.node[5].nic.phy80211p recordStats false
par Scenario.node[5].nic.phy80211p usePropagationDelay true
par Scenario.node[5].nic.phy80211p noiseFloor -98dBm
attr unit dBm
par Scenario.node[5].nic.phy80211p useNoiseFloor true
par Scenario.node[5].nic.phy80211p antenna "<root>...</root> at content:1"
par Scenario.node[5].nic.phy80211p antennaOffsetX 0m
attr unit m
par Scenario.node[5].nic.phy80211p antennaOffsetY 0m
attr unit m
par Scenario.node[5].nic.phy80211p antennaOffsetZ 1.895m
attr unit m
par Scenario.node[5].nic.phy80211p antennaOffsetYaw 0rad
attr unit rad
par Scenario.node[5].nic.phy80211p analogueModels "<root>...</root> at /home/vagrant/spe-homework-project/Project/simulations//config_5.xml:2"
par Scenario.node[5].nic.phy80211p decider "<root>...</root> at /home/vagrant/spe-homework-project/Project/simulations//config_5.xml:2"
par Scenario.node[5].nic.phy80211p minPowerLevel -110dBm
attr unit dBm
par Scenario.node[5].nic.phy80211p timeRXToTX 0s
attr unit s
par Scenario.node[5].nic.phy80211p timeRXToSleep 0s
attr unit s
par Scenario.node[5].nic.phy80211p timeTXToRX 0s
attr unit s
par Scenario.node[5].nic.phy80211p timeTXToSleep 0s
attr unit s
par Scenario.node[5].nic.phy80211p timeSleepToRX 0s
attr unit s
par Scenario.node[5].nic.phy80211p timeSleepToTX 0s
attr unit s
par Scenario.node[5].nic.phy80211p initialRadioState 0
par Scenario.node[5].nic.phy80211p radioMinAtt 1
par Scenario.node[5].nic.phy80211p radioMaxAtt 0
par Scenario.node[5].nic.phy80211p nbRadioChannels 1
par Scenario.node[5].nic.phy80211p initialRadioChannel 0
par Scenario.node[5].nic.phy80211p ccaThreshold -65dBm
attr unit dBm
par Scenario.node[5].nic.phy80211p collectCollisionStatistics false
par Scenario.node[5].nic.phy80211p allowTxDuringRx false
scalar Scenario.node[5].nic.phy80211p busyTime 0.026618649517689
par Scenario.node[5].nic.mac1609_4 typename "\"org.car2x.veins.modules.mac.ieee80211p.Mac1609_4\""
par Scenario.node[5].nic.mac1609_4 notAffectedByHostState false
par Scenario.node[5].nic.mac1609_4 headerLength 0bit
attr unit bit
par Scenario.node[5].nic.mac1609_4 address "\"auto\""
par Scenario.node[5].nic.mac1609_4 useServiceChannel false
par Scenario.node[5].nic.mac1609_4 serviceChannel 1
par Scenario.node[5].nic.mac1609_4 bitrate 6000000bps
attr unit bps
par Scenario.node[5].nic.mac1609_4 syncOffset 0.0003s
attr unit s
par Scenario.node[5].nic.mac1609_4 txPower 20mW
attr unit mW
par Scenario.node[5].nic.mac1609_4 queueSize 0
par Scenario.node[5].nic.mac1609_4 dot11RTSThreshold 12000bit
attr unit bit
par Scenario.node[5].nic.mac1609_4 dot11ShortRetryLimit 7
par Scenario.node[5].nic.mac1609_4 dot11LongRetryLimit 4
par Scenario.node[5].nic.mac1609_4 ackLength 112bit
attr unit bit
par Scenario.node[5].nic.mac1609_4 useAcks false
par Scenario.node[5].nic.mac1609_4 frameErrorRate 0
par Scenario.node[5].nic.mac1609_4 ackErrorRate 0
scalar Scenario.node[5].nic.mac1609_4 ReceivedUnicastPackets 0
scalar Scenario.node[5].nic.mac1609_4 ReceivedBroadcasts 23615
scalar Scenario.node[5].nic.mac1609_4 SentPackets 933
scalar Scenario.node[5].nic.mac1609_4 SentAcknowledgements 0
scalar Scenario.node[5].nic.mac1609_4 RetriesExceeded 0
scalar Scenario.node[5].nic.mac1609_4 SNIRLostPackets 265
scalar Scenario.node[5].nic.mac1609_4 RXTXLostPackets 0
scalar Scenario.node[5].nic.mac1609_4 TotalLostPackets 265
scalar Scenario.node[5].nic.mac1609_4 DroppedPacketsInMac 0
scalar Scenario.node[5].nic.mac1609_4 TooLittleTime 0
scalar Scenario.node[5].nic.mac1609_4 TimesIntoBackoff 1302
scalar Scenario.node[5].nic.mac1609_4 SlotsBackoff 1910
scalar Scenario.node[5].nic.mac1609_4 NumInternalContention 0
scalar Scenario.node[5].nic.mac1609_4 totalBusyTime 2.570292412059
scalar Scenario.node[5].nic.mac1609_4 retriesExceeded:count 0
attr recordingmode count
attr source org_car2x_veins_modules_mac_sigRetriesExceeded
scalar Scenario.node[5].nic.mac1609_4 sentAcks:count 0
attr recordingmode count
attr source org_car2x_veins_modules_mac_sigSentAck
scalar Scenario.node[5].nic.mac1609_4 sentPackets:count 933
attr recordingmode count
attr source org_car2x_veins_modules_mac_sigSentPacket
scalar Scenario.node[5].nic.mac1609_4 collisions:count 0
attr recordingmode count
attr source org_car2x_veins_modules_mac_sigCollision
scalar Scenario.node[5].nic.mac1609_4 channelBusy:timeavg 0.027548686088524
attr recordingmode timeavg
attr source org_car2x_veins_modules_mac_sigChannelBusy
par Scenario.node[5].nic typename "\"org.car2x.veins.modules.nic.Nic80211p\""
par Scenario.node[5].nic connectionManagerName "\"connectionManager\""
par Scenario.node[5].veinsmobility typename "\"org.car2x.veins.modules.mobility.traci.TraCIMobility\""
par Scenario.node[5].veinsmobility notAffectedByHostState true
par Scenario.node[5].veinsmobility x 0
par Scenario.node[5].veinsmobility y 0
par Scenario.node[5].veinsmobility z 1.895
par Scenario.node[5].veinsmobility xOrientation 1
par Scenario.node[5].veinsmobility yOrientation 0
par Scenario.node[5].veinsmobility zOrientation 0
par Scenario.node[5].veinsmobility hostPositionOffset 0m
attr unit m
par Scenario.node[5].veinsmobility setHostSpeed false
par Scenario.node[5].veinsmobility accidentCount 0
par Scenario.node[5].veinsmobility accidentStart 40.0256s
attr unit s
par Scenario.node[5].veinsmobility accidentDuration "uniform(30s, 60s)"
attr unit s
par Scenario.node[5].veinsmobility accidentInterval "uniform(30s, 60s)"
attr unit s
scalar Scenario.node[5].veinsmobility startTime 6.7
scalar Scenario.node[5].veinsmobility totalTime 93.3
scalar Scenario.node[5].veinsmobility stopTime 100
scalar Scenario.node[5].veinsmobility minSpeed 0.25378633781336
scalar Scenario.node[5].veinsmobility maxSpeed 12.874252043939
scalar Scenario.node[5].veinsmobility totalDistance 1109.0392591625
scalar Scenario.node[5].veinsmobility totalCO2Emission 233.44457757856
par Scenario.node[5] typename "\"org.car2x.veins.nodes.Car\""
par Scenario.node[5] applType "\"TraCIDemo11p\""
par Scenario.node[5] nicType "\"Nic80211p\""
par Scenario.node[5] veinsmobilityType "\"org.car2x.veins.modules.mobility.traci.TraCIMobility\""
par Scenario.node[8].appl typename "\"org.car2x.veins.modules.application.traci.TraCIDemo11p\""
par Scenario.node[8].appl headerLength 80bit
attr unit bit
par Scenario.node[8].appl sendBeacons true
par Scenario.node[8].appl beaconLengthBits 256bit
attr unit bit
par Scenario.node[8].appl beaconUserPriority 7
par Scenario.node[8].appl beaconInterval 0.1s
attr unit s
par Scenario.node[8].appl dataLengthBits 1024bit
attr unit bit
par Scenario.node[8].appl dataOnSch false
par Scenario.node[8].appl dataUserPriority 7
par Scenario.node[8].appl avoidBeaconSynchronization true
par Scenario.node[8].appl sendWSA false
par Scenario.node[8].appl wsaLengthBits 250bit
attr unit bit
par Scenario.node[8].appl wsaInterval 1s
attr unit s
scalar Scenario.node[8].appl generatedWSMs 0
scalar Scenario.node[8].appl receivedWSMs 0
scalar Scenario.node[8].appl generatedBSMs 895
scalar Scenario.node[8].appl receivedBSMs 25141
scalar Scenario.node[8].appl generatedWSAs 0
scalar Scenario.node[8].appl receivedWSAs 0
par Scenario.node[8].nic.phy80211p typename "\"org.car2x.veins.modules.phy.PhyLayer80211p\""
par Scenario.node[8].nic.phy80211p recordStats false
par Scenario.node[8].nic.phy80211p usePropagationDelay true
par Scenario.node[8].nic.phy80211p noiseFloor -98dBm
attr unit dBm
par Scenario.node[8].nic.phy80211p useNoiseFloor true
par Scenario.node[8].nic.phy80211p antenna "<root>...</root> at content:1"
par Scenario.node[8].nic.phy80211p antennaOffsetX 0m
attr unit m
par Scenario.node[8].nic.phy80211p antennaOffsetY 0m
attr unit m
par Scenario.node[8].nic.phy80211p antennaOffsetZ 1.895m
attr unit m
par Scenario.node[8].nic.phy80211p antennaOffsetYaw 0rad
attr unit rad
par Scenario.node[8].nic.phy80211p analogueModels "<root>...</root> at /home/vagrant/spe-homework-project/Project/simulations//config_5.xml:2"
par Scenario.node[8].nic.phy80211p decider "<root>...</root> at /home/vagrant/spe-homework-project/Project/simulations//config_5.xml:2"
par Scenario.node[8].nic.phy80211p minPowerLevel -110dBm
attr unit dBm
par Scenario.node[8].nic.phy80211p timeRXToTX 0s
attr unit s
par Scenario.node[8].nic.phy80211p timeRXToSleep 0s
attr unit s
par Scenario.node[8].nic.phy80211p timeTXToRX 0s
attr unit s
par Scenario.node[8].nic.phy80211p timeTXToSleep 0s
attr unit s
par Scenario.node[8].nic.phy80211p timeSleepToRX 0s
attr unit s
par Scenario.node[8].nic.phy80211p timeSleepToTX 0s
attr unit s
par Scenario.node[8].nic.phy80211p initialRadioState 0
par Scenario.node[8].nic.phy80211p radioMinAtt 1
par Scenario.node[8].nic.phy80211p radioMaxAtt 0
par Scenario.node[8].nic.phy80211p nbRadioChannels 1
par Scenario.node[8].nic.phy80211p initialRadioChannel 0
par Scenario.node[8].nic.phy80211p ccaThreshold -65dBm
attr unit dBm
par Scenario.node[8].nic.phy80211p collectCollisionStatistics false
par Scenario.node[8].nic.phy80211p allowTxDuringRx false
scalar Scenario.node[8].nic.phy80211p busyTime 0.029616178770952
par Scenario.node[8].nic.mac1609_4 typename "\"org.car2x.veins.modules.mac.ieee80211p.Mac1609_4\""
par Scenario.node[8].nic.mac1609_4 notAffectedByHostState false
par Scenario.node[8].nic.mac1609_4 headerLength 0bit
attr unit bit
par Scenario.node[8].nic.mac1609_4 address "\"auto\""
par Scenario.node[8].nic.mac1609_4 useServiceChannel false
par Scenario.node[8].nic.mac1609_4 serviceChannel 1
par Scenario.node[8].nic.mac1609_4 bitrate 6000000bps
attr unit bps
par Scenario.node[8].nic.mac1609_4 syncOffset 0.0003s
attr unit s
par Scenario.node[8].nic.mac1609_4 txPower 20mW
attr unit mW
par Scenario.node[8].nic.mac1609_4 queueSize 0
par Scenario.node[8].nic.mac1609_4 dot11RTSThreshold 12000bit
attr unit bit
par Scenario.node[8].nic.mac1609_4 dot11ShortRetryLimit 7
par Scenario.node[8].nic.mac1609_4 dot11LongRetryLimit 4
par Scenario.node[8].nic.mac1609_4 ackLength 112bit
attr unit bit
par Scenario.node[8].nic.mac1609_4 useAcks false
par Scenario.node[8].nic.mac1609_4 frameErrorRate 0
par Scenario.node[8].nic.mac1609_4 ackErrorRate 0
scalar Scenario.node[8].nic.mac1609_4 ReceivedUnicastPackets 0
scalar Scenario.node[8].nic.mac1609_4 ReceivedBroadcasts 25141
scalar Scenario.node[8].nic.mac1609_4 SentPackets 895
scalar Scenario.node[8].nic.mac1609_4 SentAcknowledgements 0
scalar Scenario.node[8].nic.mac1609_4 RetriesExceeded 0
scalar Scenario.node[8].nic.mac1609_4 SNIRLostPackets 346
scalar Scenario.node[8].nic.mac1609_4 RXTXLostPackets 0
scalar Scenario.node[8].nic.mac1609_4 TotalLostPackets 346
scalar Scenario.node[8].nic.mac1609_4 DroppedPacketsInMac 0
scalar Scenario.node[8].nic.mac1609_4 TooLittleTime 0
scalar Scenario.node[8].nic.mac1609_4 TimesIntoBackoff 895
scalar Scenario.node[8].nic.mac1609_4 SlotsBackoff 1316
scalar Scenario.node[8].nic.mac1609_4 NumInternalContention 0
scalar Scenario.node[8].nic.mac1609_4 totalBusyTime 2.732755568901
scalar Scenario.node[8].nic.mac1609_4 retriesExceeded:count 0
attr recordingmode count
attr source org_car2x_veins_modules_mac_sigRetriesExceeded
scalar Scenario.node[8].nic.mac1609_4 sentAcks:count 0
attr recordingmode count
attr source org_car2x_veins_modules_mac_sigSentAck
scalar Scenario.node[8].nic.mac1609_4 sentPackets:count 895
attr recordingmode count
attr source org_car2x_veins_modules_mac_sigSentPacket
scalar Scenario.node[8].nic.mac1609_4 collisions:count 0
attr recordingmode count
attr source org_car2x_veins_modules_mac_sigCollision
scalar Scenario.node[8].nic.mac1609_4 channelBusy:timeavg 0.030533581775431
attr recordingmode timeavg
attr source org_car2x_veins_modules_mac_sigChannelBusy
par Scenario.node[8].nic typename "\"org.car2x.veins.modules.nic.Nic80211p\""
par Scenario.node[8].nic connectionManagerName "\"connectionManager\""
par Scenario.node[8].veinsmobility typename "\"org.car2x.veins.modules.mobility.traci.TraCIMobility\""
par Scenario.node[8].veinsmobility notAffectedByHostState true
par Scenario.node[8].veinsmobility x 0
par Scenario.node[8].veinsmobility y 0
par Scenario.node[8].veinsmobility z 1.895
par Scenario.node[8].veinsmobility xOrientation 1
par Scenario.node[8].veinsmobility yOrientation 0
par Scenario.node[8].veinsmobility zOrientation 0
par Scenario.node[8].veinsmobility hostPositionOffset 0m
attr unit m
par Scenario.node[8].veinsmobility setHostSpeed false
par Scenario.node[8].veinsmobility accidentCount 0
par Scenario.node[8].veinsmobility accidentStart 35.9698s
attr unit s
par Scenario.node[8].veinsmobility accidentDuration "uniform(30s, 60s)"
attr unit s
par Scenario.node[8].veinsmobility accidentInterval "uniform(30s, 60s)"
attr unit s
scalar Scenario.node[8].veinsmobility startTime 10.5
scalar Scenario.node[8].veinsmobility totalTime 89.5
scalar Scenario.node[8].veinsmobility stopTime 100
scalar Scenario.node[8].veinsmobility minSpeed 0.25705194656458
scalar Scenario.node[8].veinsmobility maxSpeed 11.685624049335
scalar Scenario.node[8].veinsmobility totalDistance 995.80704473721
scalar Scenario.node[8].veinsmobility totalCO2Emission 194.62141608978
par Scenario.node[8] typename "\"org.car2x.veins.nodes.Car\""
par Scenario.node[8] applType "\"TraCIDemo11p\""
par Scenario.node[8] nicType "\"Nic80211p\""
par Scenario.node[8] veinsmobilityType "\"org.car2x.veins.modules.mobility.traci.TraCIMobility\""
par Scenario.node[9].appl typename "\"org.car2x.veins.modules.application.traci.TraCIDemo11p\""
par Scenario.node[9].appl headerLength 80bit
attr unit bit
par Scenario.node[9].appl sendBeacons true
par Scenario.node[9].appl beaconLengthBits 256bit
attr unit bit
par Scenario.node[9].appl beaconUserPriority 7
par Scenario.node[9].appl beaconInterval 0.1s
attr unit s
par Scenario.node[9].appl dataLengthBits 1024bit
attr unit bit
par Scenario.node[9].appl dataOnSch false
par Scenario.node[9].appl dataUserPriority 7
par Scenario.node[9].appl avoidBeaconSynchronization true
par Scenario.node[9].appl sendWSA false
par Scenario.node[9].appl wsaLengthBits 250bit
attr unit bit
par Scenario.node[9].appl wsaInterval 1s
attr unit s
scalar Scenario.node[9].appl generatedWSMs 0
scalar Scenario.node[9].appl receivedWSMs 0
scalar Scenario.node[9].appl generatedBSMs 881
scalar Scenario.node[9].appl receivedBSMs 24069
scalar Scenario.node[9].appl generatedWSAs 0
scalar Scenario.node[9].appl receivedWSAs 0
par Scenario.node[9].nic.phy80211p typename "\"org.car2x.veins.modules.phy.PhyLayer80211p\""
par Scenario.node[9].nic.phy80211p recordStats false
par Scenario.node[9].nic.phy80211p usePropagationDelay true
par Scenario.node[9].nic.phy80211p noiseFloor -98dBm
attr unit dBm
par Scenario.node[9].nic.phy80211p useNoiseFloor true
par Scenario.node[9].nic.phy80211p antenna "<root>...</root> at content:1"
par Scenario.node[9].nic.phy80211p antennaOffsetX 0m
attr unit m
par Scenario.node[9].nic.phy80211p antennaOffsetY 0m
attr unit m
par Scenario.node[9].nic.phy80211p antennaOffsetZ 1.895m
attr unit m
par Scenario.node[9].nic.phy80211p antennaOffsetYaw 0rad
attr unit rad
par Scenario.node[9].nic.phy80211p analogueModels "<root>...</root> at /home/vagrant/spe-homework-project/Project/simulations//config_5.xml:2"
par Scenario.node[9].nic.phy80211p decider "<root>...</root> at /home/vagrant/spe-homework-project/Project/simulations//config_5.xml:2"
par Scenario.node[9].nic.phy80211p minPowerLevel -110dBm
attr unit dBm
par Scenario.node[9].nic.phy80211p timeRXToTX 0s
attr unit s
par Scenario.node[9].nic.phy80211p timeRXToSleep 0s
attr unit s
par Scenario.node[9].nic.phy80211p timeTXToRX 0s
attr unit s
par Scenario.node[9].nic.phy80211p timeTXToSleep 0s
attr unit s
par Scenario.node[9].nic.phy80211p timeSleepToRX 0s
attr unit s
par Scenario.node[9].nic.phy80211p timeSleepToTX 0s
attr unit s
par Scenario.node[9].nic.phy80211p initialRadioState 0
par Scenario.node[9].nic.phy80211p radioMinAtt 1
par Scenario.node[9].nic.phy80211p radioMaxAtt 0
par Scenario.node[9].nic.phy80211p nbRadioChannels 1
par Scenario.node[9].nic.phy80211p initialRadioChannel 0
par Scenario.node[9].nic.phy80211p ccaThreshold -65dBm
attr unit dBm
par Scenario.node[9].nic.phy80211p collectCollisionStatistics false
par Scenario.node[9].nic.phy80211p allowTxDuringRx false
scalar Scenario.node[9].nic.phy80211p busyTime 0.028785925085134
par Scenario.node[9].nic.mac1609_4 typename "\"org.car2x.veins.modules.mac.ieee80211p.Mac1609_4\""
par Scenario.node[9].nic.mac1609_4 notAffectedByHostState false
par Scenario.node[9].nic.mac1609_4 headerLength 0bit
attr unit bit
par Scenario.node[9].nic.mac1609_4 address "\"auto\""
par Scenario.node[9].nic.mac1609_4 useServiceChannel false
[...]
attr unit dBm
par Scenario.node[65].nic.phy80211p timeRXToTX 0s
attr unit s
par Scenario.node[65].nic.phy80211p timeRXToSleep 0s
attr unit s
par Scenario.node[65].nic.phy80211p timeTXToRX 0s
attr unit s
par Scenario.node[65].nic.phy80211p timeTXToSleep 0s
attr unit s
par Scenario.node[65].nic.phy80211p timeSleepToRX 0s
attr unit s
par Scenario.node[65].nic.phy80211p timeSleepToTX 0s
attr unit s
par Scenario.node[65].nic.phy80211p initialRadioState 0
par Scenario.node[65].nic.phy80211p radioMinAtt 1
par Scenario.node[65].nic.phy80211p radioMaxAtt 0
par Scenario.node[65].nic.phy80211p nbRadioChannels 1
par Scenario.node[65].nic.phy80211p initialRadioChannel 0
par Scenario.node[65].nic.phy80211p ccaThreshold -65dBm
attr unit dBm
par Scenario.node[65].nic.phy80211p collectCollisionStatistics false
par Scenario.node[65].nic.phy80211p allowTxDuringRx false
scalar Scenario.node[65].nic.phy80211p busyTime 0.034263783783785
par Scenario.node[65].nic.mac1609_4 typename "\"org.car2x.veins.modules.mac.ieee80211p.Mac1609_4\""
par Scenario.node[65].nic.mac1609_4 notAffectedByHostState false
par Scenario.node[65].nic.mac1609_4 headerLength 0bit
attr unit bit
par Scenario.node[65].nic.mac1609_4 address "\"auto\""
par Scenario.node[65].nic.mac1609_4 useServiceChannel false
par Scenario.node[65].nic.mac1609_4 serviceChannel 1
par Scenario.node[65].nic.mac1609_4 bitrate 6000000bps
attr unit bps
par Scenario.node[65].nic.mac1609_4 syncOffset 0.0003s
attr unit s
par Scenario.node[65].nic.mac1609_4 txPower 20mW
attr unit mW
par Scenario.node[65].nic.mac1609_4 queueSize 0
par Scenario.node[65].nic.mac1609_4 dot11RTSThreshold 12000bit
attr unit bit
par Scenario.node[65].nic.mac1609_4 dot11ShortRetryLimit 7
par Scenario.node[65].nic.mac1609_4 dot11LongRetryLimit 4
par Scenario.node[65].nic.mac1609_4 ackLength 112bit
attr unit bit
par Scenario.node[65].nic.mac1609_4 useAcks false
par Scenario.node[65].nic.mac1609_4 frameErrorRate 0
par Scenario.node[65].nic.mac1609_4 ackErrorRate 0
scalar Scenario.node[65].nic.mac1609_4 ReceivedUnicastPackets 0
scalar Scenario.node[65].nic.mac1609_4 ReceivedBroadcasts 1219
scalar Scenario.node[65].nic.mac1609_4 SentPackets 37
scalar Scenario.node[65].nic.mac1609_4 SentAcknowledgements 0
scalar Scenario.node[65].nic.mac1609_4 RetriesExceeded 0
scalar Scenario.node[65].nic.mac1609_4 SNIRLostPackets 0
scalar Scenario.node[65].nic.mac1609_4 RXTXLostPackets 0
scalar Scenario.node[65].nic.mac1609_4 TotalLostPackets 0
scalar Scenario.node[65].nic.mac1609_4 DroppedPacketsInMac 0
scalar Scenario.node[65].nic.mac1609_4 TooLittleTime 0
scalar Scenario.node[65].nic.mac1609_4 TimesIntoBackoff 37
scalar Scenario.node[65].nic.mac1609_4 SlotsBackoff 66
scalar Scenario.node[65].nic.mac1609_4 NumInternalContention 0
scalar Scenario.node[65].nic.mac1609_4 totalBusyTime 0.130661
scalar Scenario.node[65].nic.mac1609_4 retriesExceeded:count 0
attr recordingmode count
attr source org_car2x_veins_modules_mac_sigRetriesExceeded
scalar Scenario.node[65].nic.mac1609_4 sentAcks:count 0
attr recordingmode count
attr source org_car2x_veins_modules_mac_sigSentAck
scalar Scenario.node[65].nic.mac1609_4 sentPackets:count 37
attr recordingmode count
attr source org_car2x_veins_modules_mac_sigSentPacket
scalar Scenario.node[65].nic.mac1609_4 collisions:count 0
attr recordingmode count
attr source org_car2x_veins_modules_mac_sigCollision
scalar Scenario.node[65].nic.mac1609_4 channelBusy:timeavg 0.035313783783785
attr recordingmode timeavg
attr source org_car2x_veins_modules_mac_sigChannelBusy
par Scenario.node[65].nic typename "\"org.car2x.veins.modules.nic.Nic80211p\""
par Scenario.node[65].nic connectionManagerName "\"connectionManager\""
par Scenario.node[65].veinsmobility typename "\"org.car2x.veins.modules.mobility.traci.TraCIMobility\""
par Scenario.node[65].veinsmobility notAffectedByHostState true
par Scenario.node[65].veinsmobility x 0
par Scenario.node[65].veinsmobility y 0
par Scenario.node[65].veinsmobility z 1.895
par Scenario.node[65].veinsmobility xOrientation 1
par Scenario.node[65].veinsmobility yOrientation 0
par Scenario.node[65].veinsmobility zOrientation 0
par Scenario.node[65].veinsmobility hostPositionOffset 0m
attr unit m
par Scenario.node[65].veinsmobility setHostSpeed false
par Scenario.node[65].veinsmobility accidentCount 0
par Scenario.node[65].veinsmobility accidentStart 51.2388s
attr unit s
par Scenario.node[65].veinsmobility accidentDuration "uniform(30s, 60s)"
attr unit s
par Scenario.node[65].veinsmobility accidentInterval "uniform(30s, 60s)"
attr unit s
scalar Scenario.node[65].veinsmobility startTime 96.3
scalar Scenario.node[65].veinsmobility totalTime 3.7
scalar Scenario.node[65].veinsmobility stopTime 100
scalar Scenario.node[65].veinsmobility minSpeed 0.25580685469555
scalar Scenario.node[65].veinsmobility maxSpeed 7.6716756327586
scalar Scenario.node[65].veinsmobility totalDistance 15.153326460928
scalar Scenario.node[65].veinsmobility totalCO2Emission 12.043138823601
par Scenario.node[65] typename "\"org.car2x.veins.nodes.Car\""
par Scenario.node[65] applType "\"TraCIDemo11p\""
par Scenario.node[65] nicType "\"Nic80211p\""
par Scenario.node[65] veinsmobilityType "\"org.car2x.veins.modules.mobility.traci.TraCIMobility\""
par Scenario.node[66].appl typename "\"org.car2x.veins.modules.application.traci.TraCIDemo11p\""
par Scenario.node[66].appl headerLength 80bit
attr unit bit
par Scenario.node[66].appl sendBeacons true
par Scenario.node[66].appl beaconLengthBits 256bit
attr unit bit
par Scenario.node[66].appl beaconUserPriority 7
par Scenario.node[66].appl beaconInterval 0.1s
attr unit s
par Scenario.node[66].appl dataLengthBits 1024bit
attr unit bit
par Scenario.node[66].appl dataOnSch false
par Scenario.node[66].appl dataUserPriority 7
par Scenario.node[66].appl avoidBeaconSynchronization true
par Scenario.node[66].appl sendWSA false
par Scenario.node[66].appl wsaLengthBits 250bit
attr unit bit
par Scenario.node[66].appl wsaInterval 1s
attr unit s
scalar Scenario.node[66].appl generatedWSMs 0
scalar Scenario.node[66].appl receivedWSMs 0
scalar Scenario.node[66].appl generatedBSMs 34
scalar Scenario.node[66].appl receivedBSMs 947
scalar Scenario.node[66].appl generatedWSAs 0
scalar Scenario.node[66].appl receivedWSAs 0
par Scenario.node[66].nic.phy80211p typename "\"org.car2x.veins.modules.phy.PhyLayer80211p\""
par Scenario.node[66].nic.phy80211p recordStats false
par Scenario.node[66].nic.phy80211p usePropagationDelay true
par Scenario.node[66].nic.phy80211p noiseFloor -98dBm
attr unit dBm
par Scenario.node[66].nic.phy80211p useNoiseFloor true
par Scenario.node[66].nic.phy80211p antenna "<root>...</root> at content:1"
par Scenario.node[66].nic.phy80211p antennaOffsetX 0m
attr unit m
par Scenario.node[66].nic.phy80211p antennaOffsetY 0m
attr unit m
par Scenario.node[66].nic.phy80211p antennaOffsetZ 1.895m
attr unit m
par Scenario.node[66].nic.phy80211p antennaOffsetYaw 0rad
attr unit rad
par Scenario.node[66].nic.phy80211p analogueModels "<root>...</root> at /home/vagrant/spe-homework-project/Project/simulations//config_5.xml:2"
par Scenario.node[66].nic.phy80211p decider "<root>...</root> at /home/vagrant/spe-homework-project/Project/simulations//config_5.xml:2"
par Scenario.node[66].nic.phy80211p minPowerLevel -110dBm
attr unit dBm
par Scenario.node[66].nic.phy80211p timeRXToTX 0s
attr unit s
par Scenario.node[66].nic.phy80211p timeRXToSleep 0s
attr unit s
par Scenario.node[66].nic.phy80211p timeTXToRX 0s
attr unit s
par Scenario.node[66].nic.phy80211p timeTXToSleep 0s
attr unit s
par Scenario.node[66].nic.phy80211p timeSleepToRX 0s
attr unit s
par Scenario.node[66].nic.phy80211p timeSleepToTX 0s
attr unit s
par Scenario.node[66].nic.phy80211p initialRadioState 0
par Scenario.node[66].nic.phy80211p radioMinAtt 1
par Scenario.node[66].nic.phy80211p radioMaxAtt 0
par Scenario.node[66].nic.phy80211p nbRadioChannels 1
par Scenario.node[66].nic.phy80211p initialRadioChannel 0
par Scenario.node[66].nic.phy80211p ccaThreshold -65dBm
attr unit dBm
par Scenario.node[66].nic.phy80211p collectCollisionStatistics false
par Scenario.node[66].nic.phy80211p allowTxDuringRx false
scalar Scenario.node[66].nic.phy80211p busyTime 0.02896705882353
par Scenario.node[66].nic.mac1609_4 typename "\"org.car2x.veins.modules.mac.ieee80211p.Mac1609_4\""
par Scenario.node[66].nic.mac1609_4 notAffectedByHostState false
par Scenario.node[66].nic.mac1609_4 headerLength 0bit
attr unit bit
par Scenario.node[66].nic.mac1609_4 address "\"auto\""
par Scenario.node[66].nic.mac1609_4 useServiceChannel false
par Scenario.node[66].nic.mac1609_4 serviceChannel 1
par Scenario.node[66].nic.mac1609_4 bitrate 6000000bps
attr unit bps
par Scenario.node[66].nic.mac1609_4 syncOffset 0.0003s
attr unit s
par Scenario.node[66].nic.mac1609_4 txPower 20mW
attr unit mW
par Scenario.node[66].nic.mac1609_4 queueSize 0
par Scenario.node[66].nic.mac1609_4 dot11RTSThreshold 12000bit
attr unit bit
par Scenario.node[66].nic.mac1609_4 dot11ShortRetryLimit 7
par Scenario.node[66].nic.mac1609_4 dot11LongRetryLimit 4
par Scenario.node[66].nic.mac1609_4 ackLength 112bit
attr unit bit
par Scenario.node[66].nic.mac1609_4 useAcks false
par Scenario.node[66].nic.mac1609_4 frameErrorRate 0
par Scenario.node[66].nic.mac1609_4 ackErrorRate 0
scalar Scenario.node[66].nic.mac1609_4 ReceivedUnicastPackets 0
scalar Scenario.node[66].nic.mac1609_4 ReceivedBroadcasts 947
scalar Scenario.node[66].nic.mac1609_4 SentPackets 34
scalar Scenario.node[66].nic.mac1609_4 SentAcknowledgements 0
scalar Scenario.node[66].nic.mac1609_4 RetriesExceeded 0
scalar Scenario.node[66].nic.mac1609_4 SNIRLostPackets 0
scalar Scenario.node[66].nic.mac1609_4 RXTXLostPackets 0
scalar Scenario.node[66].nic.mac1609_4 TotalLostPackets 0
scalar Scenario.node[66].nic.mac1609_4 DroppedPacketsInMac 0
scalar Scenario.node[66].nic.mac1609_4 TooLittleTime 0
scalar Scenario.node[66].nic.mac1609_4 TimesIntoBackoff 34
scalar Scenario.node[66].nic.mac1609_4 SlotsBackoff 52
scalar Scenario.node[66].nic.mac1609_4 NumInternalContention 0
scalar Scenario.node[66].nic.mac1609_4 totalBusyTime 0.102058
scalar Scenario.node[66].nic.mac1609_4 retriesExceeded:count 0
attr recordingmode count
attr source org_car2x_veins_modules_mac_sigRetriesExceeded
scalar Scenario.node[66].nic.mac1609_4 sentAcks:count 0
attr recordingmode count
attr source org_car2x_veins_modules_mac_sigSentAck
scalar Scenario.node[66].nic.mac1609_4 sentPackets:count 34
attr recordingmode count
attr source org_car2x_veins_modules_mac_sigSentPacket
scalar Scenario.node[66].nic.mac1609_4 collisions:count 0
attr recordingmode count
attr source org_car2x_veins_modules_mac_sigCollision
scalar Scenario.node[66].nic.mac1609_4 channelBusy:timeavg 0.03001705882353
attr recordingmode timeavg
attr source org_car2x_veins_modules_mac_sigChannelBusy
par Scenario.node[66].nic typename "\"org.car2x.veins.modules.nic.Nic80211p\""
par Scenario.node[66].nic connectionManagerName "\"connectionManager\""
par Scenario.node[66].veinsmobility typename "\"org.car2x.veins.modules.mobility.traci.TraCIMobility\""
par Scenario.node[66].veinsmobility notAffectedByHostState true
par Scenario.node[66].veinsmobility x 0
par Scenario.node[66].veinsmobility y 0
par Scenario.node[66].veinsmobility z 1.895
par Scenario.node[66].veinsmobility xOrientation 1
par Scenario.node[66].veinsmobility yOrientation 0
par Scenario.node[66].veinsmobility zOrientation 0
par Scenario.node[66].veinsmobility hostPositionOffset 0m
attr unit m
par Scenario.node[66].veinsmobility setHostSpeed false
par Scenario.node[66].veinsmobility accidentCount 0
par Scenario.node[66].veinsmobility accidentStart 41.5943s
attr unit s
par Scenario.node[66].veinsmobility accidentDuration "uniform(30s, 60s)"
attr unit s
par Scenario.node[66].veinsmobility accidentInterval "uniform(30s, 60s)"
attr unit s
scalar Scenario.node[66].veinsmobility startTime 96.6
scalar Scenario.node[66].veinsmobility totalTime 3.4
scalar Scenario.node[66].veinsmobility stopTime 100
scalar Scenario.node[66].veinsmobility minSpeed 0.25301380782388
scalar Scenario.node[66].veinsmobility maxSpeed 7.1604209638399
scalar Scenario.node[66].veinsmobility totalDistance 12.825822813989
scalar Scenario.node[66].veinsmobility totalCO2Emission 10.661233583664
par Scenario.node[66] typename "\"org.car2x.veins.nodes.Car\""
par Scenario.node[66] applType "\"TraCIDemo11p\""
par Scenario.node[66] nicType "\"Nic80211p\""
par Scenario.node[66] veinsmobilityType "\"org.car2x.veins.modules.mobility.traci.TraCIMobility\""
par Scenario.node[67].appl typename "\"org.car2x.veins.modules.application.traci.TraCIDemo11p\""
par Scenario.node[67].appl headerLength 80bit
attr unit bit
par Scenario.node[67].appl sendBeacons true
par Scenario.node[67].appl beaconLengthBits 256bit
attr unit bit
par Scenario.node[67].appl beaconUserPriority 7
par Scenario.node[67].appl beaconInterval 0.1s
attr unit s
par Scenario.node[67].appl dataLengthBits 1024bit
attr unit bit
par Scenario.node[67].appl dataOnSch false
par Scenario.node[67].appl dataUserPriority 7
par Scenario.node[67].appl avoidBeaconSynchronization true
par Scenario.node[67].appl sendWSA false
par Scenario.node[67].appl wsaLengthBits 250bit
attr unit bit
par Scenario.node[67].appl wsaInterval 1s
attr unit s
scalar Scenario.node[67].appl generatedWSMs 0
scalar Scenario.node[67].appl receivedWSMs 0
scalar Scenario.node[67].appl generatedBSMs 7
scalar Scenario.node[67].appl receivedBSMs 189
scalar Scenario.node[67].appl generatedWSAs 0
scalar Scenario.node[67].appl receivedWSAs 0
par Scenario.node[67].nic.phy80211p typename "\"org.car2x.veins.modules.phy.PhyLayer80211p\""
par Scenario.node[67].nic.phy80211p recordStats false
par Scenario.node[67].nic.phy80211p usePropagationDelay true
par Scenario.node[67].nic.phy80211p noiseFloor -98dBm
attr unit dBm
par Scenario.node[67].nic.phy80211p useNoiseFloor true
par Scenario.node[67].nic.phy80211p antenna "<root>...</root> at content:1"
par Scenario.node[67].nic.phy80211p antennaOffsetX 0m
attr unit m
par Scenario.node[67].nic.phy80211p antennaOffsetY 0m
attr unit m
par Scenario.node[67].nic.phy80211p antennaOffsetZ 1.895m
attr unit m
par Scenario.node[67].nic.phy80211p antennaOffsetYaw 0rad
attr unit rad
par Scenario.node[67].nic.phy80211p analogueModels "<root>...</root> at /home/vagrant/spe-homework-project/Project/simulations//config_5.xml:2"
par Scenario.node[67].nic.phy80211p decider "<root>...</root> at /home/vagrant/spe-homework-project/Project/simulations//config_5.xml:2"
par Scenario.node[67].nic.phy80211p minPowerLevel -110dBm
attr unit dBm
par Scenario.node[67].nic.phy80211p timeRXToTX 0s
attr unit s
par Scenario.node[67].nic.phy80211p timeRXToSleep 0s
attr unit s
par Scenario.node[67].nic.phy80211p timeTXToRX 0s
attr unit s
par Scenario.node[67].nic.phy80211p timeTXToSleep 0s
attr unit s
par Scenario.node[67].nic.phy80211p timeSleepToRX 0s
attr unit s
par Scenario.node[67].nic.phy80211p timeSleepToTX 0s
attr unit s
par Scenario.node[67].nic.phy80211p initialRadioState 0
par Scenario.node[67].nic.phy80211p radioMinAtt 1
par Scenario.node[67].nic.phy80211p radioMaxAtt 0
par Scenario.node[67].nic.phy80211p nbRadioChannels 1
par Scenario.node[67].nic.phy80211p initialRadioChannel 0
par Scenario.node[67].nic.phy80211p ccaThreshold -65dBm
attr unit dBm
par Scenario.node[67].nic.phy80211p collectCollisionStatistics false
par Scenario.node[67].nic.phy80211p allowTxDuringRx false
scalar Scenario.node[67].nic.phy80211p busyTime 0.02808
par Scenario.node[67].nic.mac1609_4 typename "\"org.car2x.veins.modules.mac.ieee80211p.Mac1609_4\""
par Scenario.node[67].nic.mac1609_4 notAffectedByHostState false
par Scenario.node[67].nic.mac1609_4 headerLength 0bit
attr unit bit
par Scenario.node[67].nic.mac1609_4 address "\"auto\""
par Scenario.node[67].nic.mac1609_4 useServiceChannel false
par Scenario.node[67].nic.mac1609_4 serviceChannel 1
par Scenario.node[67].nic.mac1609_4 bitrate 6000000bps
attr unit bps
par Scenario.node[67].nic.mac1609_4 syncOffset 0.0003s
attr unit s
par Scenario.node[67].nic.mac1609_4 txPower 20mW
attr unit mW
par Scenario.node[67].nic.mac1609_4 queueSize 0
par Scenario.node[67].nic.mac1609_4 dot11RTSThreshold 12000bit
attr unit bit
par Scenario.node[67].nic.mac1609_4 dot11ShortRetryLimit 7
par Scenario.node[67].nic.mac1609_4 dot11LongRetryLimit 4
par Scenario.node[67].nic.mac1609_4 ackLength 112bit
attr unit bit
par Scenario.node[67].nic.mac1609_4 useAcks false
par Scenario.node[67].nic.mac1609_4 frameErrorRate 0
par Scenario.node[67].nic.mac1609_4 ackErrorRate 0
scalar Scenario.node[67].nic.mac1609_4 ReceivedUnicastPackets 0
scalar Scenario.node[67].nic.mac1609_4 ReceivedBroadcasts 189
scalar Scenario.node[67].nic.mac1609_4 SentPackets 7
scalar Scenario.node[67].nic.mac1609_4 SentAcknowledgements 0
scalar Scenario.node[67].nic.mac1609_4 RetriesExceeded 0
scalar Scenario.node[67].nic.mac1609_4 SNIRLostPackets 0
scalar Scenario.node[67].nic.mac1609_4 RXTXLostPackets 0
scalar Scenario.node[67].nic.mac1609_4 TotalLostPackets 0
scalar Scenario.node[67].nic.mac1609_4 DroppedPacketsInMac 0
scalar Scenario.node[67].nic.mac1609_4 TooLittleTime 0
scalar Scenario.node[67].nic.mac1609_4 TimesIntoBackoff 7
scalar Scenario.node[67].nic.mac1609_4 SlotsBackoff 9
scalar Scenario.node[67].nic.mac1609_4 NumInternalContention 0
scalar Scenario.node[67].nic.mac1609_4 totalBusyTime 0.020391
scalar Scenario.node[67].nic.mac1609_4 retriesExceeded:count 0
attr recordingmode count
attr source org_car2x_veins_modules_mac_sigRetriesExceeded
scalar Scenario.node[67].nic.mac1609_4 sentAcks:count 0
attr recordingmode count
attr source org_car2x_veins_modules_mac_sigSentAck
scalar Scenario.node[67].nic.mac1609_4 sentPackets:count 7
attr recordingmode count
attr source org_car2x_veins_modules_mac_sigSentPacket
scalar Scenario.node[67].nic.mac1609_4 collisions:count 0
attr recordingmode count
attr source org_car2x_veins_modules_mac_sigCollision
scalar Scenario.node[67].nic.mac1609_4 channelBusy:timeavg 0.02913
attr recordingmode timeavg
attr source org_car2x_veins_modules_mac_sigChannelBusy
par Scenario.node[67].nic typename "\"org.car2x.veins.modules.nic.Nic80211p\""
par Scenario.node[67].nic connectionManagerName "\"connectionManager\""
par Scenario.node[67].veinsmobility typename "\"org.car2x.veins.modules.mobility.traci.TraCIMobility\""
par Scenario.node[67].veinsmobility notAffectedByHostState true
par Scenario.node[67].veinsmobility x 0
par Scenario.node[67].veinsmobility y 0
par Scenario.node[67].veinsmobility z 1.895
par Scenario.node[67].veinsmobility xOrientation 1
par Scenario.node[67].veinsmobility yOrientation 0
par Scenario.node[67].veinsmobility zOrientation 0
par Scenario.node[67].veinsmobility hostPositionOffset 0m
attr unit m
par Scenario.node[67].veinsmobility setHostSpeed false
par Scenario.node[67].veinsmobility accidentCount 0
par Scenario.node[67].veinsmobility accidentStart 40.0342s
attr unit s
par Scenario.node[67].veinsmobility accidentDuration "uniform(30s, 60s)"
attr unit s
par Scenario.node[67].veinsmobility accidentInterval "uniform(30s, 60s)"
attr unit s
scalar Scenario.node[67].veinsmobility startTime 99.3
scalar Scenario.node[67].veinsmobility totalTime 0.7
scalar Scenario.node[67].veinsmobility stopTime 100
scalar Scenario.node[67].veinsmobility minSpeed 0.25716436305153
scalar Scenario.node[67].veinsmobility maxSpeed 1.7322476760206
scalar Scenario.node[67].veinsmobility totalDistance 0.6938080263451
scalar Scenario.node[67].veinsmobility totalCO2Emission 1.0958055867269
par Scenario.node[67] typename "\"org.car2x.veins.nodes.Car\""
par Scenario.node[67] applType "\"TraCIDemo11p\""
par Scenario.node[67] nicType "\"Nic80211p\""
par Scenario.node[67] veinsmobilityType "\"org.car2x.veins.modules.mobility.traci.TraCIMobility\""
par Scenario typename "\"org.car2x.veins.nodes.Scenario\""
par Scenario playgroundSizeX 1100m
attr unit m
par Scenario playgroundSizeY 200m
attr unit m
par Scenario playgroundSizeZ 50m
attr unit m

