version 3
run Scenario1-0-20260625-11:57:41-4430
attr configname Scenario1
attr datetime 20260625-11:57:41
attr datetimef 20260625-115741
attr experiment Scenario1
attr inifile omnetpp.ini
attr iterationvars ""
attr iterationvarsd ""
attr iterationvarsf ""
attr measurement ""
attr network org.car2x.veins.nodes.Scenario
attr processid 4430
attr repetition 0
attr replication #0
attr resultdir results
attr runnumber 0
attr seedset 0
config image-path ../../../veins/images
config description "Pure Free Space (No ground, no buildings)"
config *.annotations.draw false
config *.**.nic.phy80211p.decider "xmldoc(\"config_1.xml\")"
config *.**.nic.phy80211p.analogueModels "xmldoc(\"config_1.xml\")"
config repeat 10
config seed-set 0
config network org.car2x.veins.nodes.Scenario
config sim-time-limit 100s
config *.playgroundSizeX 600m
config *.playgroundSizeY 600m
config *.playgroundSizeZ 50m
config *.manager.updateInterval 0.1s
config *.manager.host "\"localhost\""
config *.manager.port 9999
config *.manager.autoShutdown true
config *.manager.launchConfig "xmldoc(\"simulation.launchd.xml\")"
config *.node[*].veinsmobility.x 0
config *.node[*].veinsmobility.y 0
config *.node[*].veinsmobility.z 1.895
config *.node[*].applType "\"TraCIDemo11p\""
config *.node[*].appl.headerLength "80 bit"
config *.node[*].appl.sendBeacons true
config *.node[*].appl.dataOnSch false
config *.node[*].appl.beaconInterval 0.1s
config *.connectionManager.sendDirect true
config *.connectionManager.maxInterfDist 500m
config *.connectionManager.drawMaxIntfDist false
config *.**.nic.mac1609_4.useServiceChannel false
config *.**.nic.mac1609_4.txPower 20mW
config *.**.nic.mac1609_4.bitrate 6Mbps
config *.**.nic.phy80211p.minPowerLevel -110dBm
config *.**.nic.phy80211p.useNoiseFloor true
config *.**.nic.phy80211p.noiseFloor -98dBm
config *.**.nic.phy80211p.usePropagationDelay true
config **.vector-recording true
config **.scalar-recording true
config *.**.nic.phy80211p.*.vector-recording true
config *.**.nic.mac1609_4.*.vector-recording true
config **.rcvdPower:vector.vector-recording true
config **.snir:vector.vector-recording true

par Scenario.node[13].appl typename "\"org.car2x.veins.modules.application.traci.TraCIDemo11p\""
par Scenario.node[13].appl headerLength 80bit
attr unit bit
par Scenario.node[13].appl sendBeacons true
par Scenario.node[13].appl beaconLengthBits 256bit
attr unit bit
par Scenario.node[13].appl beaconUserPriority 7
par Scenario.node[13].appl beaconInterval 0.1s
attr unit s
par Scenario.node[13].appl dataLengthBits 1024bit
attr unit bit
par Scenario.node[13].appl dataOnSch false
par Scenario.node[13].appl dataUserPriority 7
par Scenario.node[13].appl avoidBeaconSynchronization true
par Scenario.node[13].appl sendWSA false
par Scenario.node[13].appl wsaLengthBits 250bit
attr unit bit
par Scenario.node[13].appl wsaInterval 1s
attr unit s
scalar Scenario.node[13].appl generatedWSMs 0
scalar Scenario.node[13].appl receivedWSMs 0
scalar Scenario.node[13].appl generatedBSMs 131
scalar Scenario.node[13].appl receivedBSMs 2496
scalar Scenario.node[13].appl generatedWSAs 0
scalar Scenario.node[13].appl receivedWSAs 0
par Scenario.node[13].nic.phy80211p typename "\"org.car2x.veins.modules.phy.PhyLayer80211p\""
par Scenario.node[13].nic.phy80211p recordStats false
par Scenario.node[13].nic.phy80211p usePropagationDelay true
par Scenario.node[13].nic.phy80211p noiseFloor -98dBm
attr unit dBm
par Scenario.node[13].nic.phy80211p useNoiseFloor true
par Scenario.node[13].nic.phy80211p antenna "<root>...</root> at content:1"
par Scenario.node[13].nic.phy80211p antennaOffsetX 0m
attr unit m
par Scenario.node[13].nic.phy80211p antennaOffsetY 0m
attr unit m
par Scenario.node[13].nic.phy80211p antennaOffsetZ 1.895m
attr unit m
par Scenario.node[13].nic.phy80211p antennaOffsetYaw 0rad
attr unit rad
par Scenario.node[13].nic.phy80211p analogueModels "<root>...</root> at /home/vagrant/spe-homework-project/Project/simulations//config_1.xml:2"
par Scenario.node[13].nic.phy80211p decider "<root>...</root> at /home/vagrant/spe-homework-project/Project/simulations//config_1.xml:2"
par Scenario.node[13].nic.phy80211p minPowerLevel -110dBm
attr unit dBm
par Scenario.node[13].nic.phy80211p timeRXToTX 0s
attr unit s
par Scenario.node[13].nic.phy80211p timeRXToSleep 0s
attr unit s
par Scenario.node[13].nic.phy80211p timeTXToRX 0s
attr unit s
par Scenario.node[13].nic.phy80211p timeTXToSleep 0s
attr unit s
par Scenario.node[13].nic.phy80211p timeSleepToRX 0s
attr unit s
par Scenario.node[13].nic.phy80211p timeSleepToTX 0s
attr unit s
par Scenario.node[13].nic.phy80211p initialRadioState 0
par Scenario.node[13].nic.phy80211p radioMinAtt 1
par Scenario.node[13].nic.phy80211p radioMaxAtt 0
par Scenario.node[13].nic.phy80211p nbRadioChannels 1
par Scenario.node[13].nic.phy80211p initialRadioChannel 0
par Scenario.node[13].nic.phy80211p ccaThreshold -65dBm
attr unit dBm
par Scenario.node[13].nic.phy80211p collectCollisionStatistics false
par Scenario.node[13].nic.phy80211p allowTxDuringRx false
scalar Scenario.node[13].nic.phy80211p busyTime 0.019815572519084
par Scenario.node[13].nic.mac1609_4 typename "\"org.car2x.veins.modules.mac.ieee80211p.Mac1609_4\""
par Scenario.node[13].nic.mac1609_4 notAffectedByHostState false
par Scenario.node[13].nic.mac1609_4 headerLength 0bit
attr unit bit
par Scenario.node[13].nic.mac1609_4 address "\"auto\""
par Scenario.node[13].nic.mac1609_4 useServiceChannel false
par Scenario.node[13].nic.mac1609_4 serviceChannel 1
par Scenario.node[13].nic.mac1609_4 bitrate 6000000bps
attr unit bps
par Scenario.node[13].nic.mac1609_4 syncOffset 0.0003s
attr unit s
par Scenario.node[13].nic.mac1609_4 txPower 20mW
attr unit mW
par Scenario.node[13].nic.mac1609_4 queueSize 0
par Scenario.node[13].nic.mac1609_4 dot11RTSThreshold 12000bit
attr unit bit
par Scenario.node[13].nic.mac1609_4 dot11ShortRetryLimit 7
par Scenario.node[13].nic.mac1609_4 dot11LongRetryLimit 4
par Scenario.node[13].nic.mac1609_4 ackLength 112bit
attr unit bit
par Scenario.node[13].nic.mac1609_4 useAcks false
par Scenario.node[13].nic.mac1609_4 frameErrorRate 0
par Scenario.node[13].nic.mac1609_4 ackErrorRate 0
scalar Scenario.node[13].nic.mac1609_4 ReceivedUnicastPackets 0
scalar Scenario.node[13].nic.mac1609_4 ReceivedBroadcasts 2496
scalar Scenario.node[13].nic.mac1609_4 SentPackets 131
scalar Scenario.node[13].nic.mac1609_4 SentAcknowledgements 0
scalar Scenario.node[13].nic.mac1609_4 RetriesExceeded 0
scalar Scenario.node[13].nic.mac1609_4 SNIRLostPackets 0
scalar Scenario.node[13].nic.mac1609_4 RXTXLostPackets 0
scalar Scenario.node[13].nic.mac1609_4 TotalLostPackets 0
scalar Scenario.node[13].nic.mac1609_4 DroppedPacketsInMac 0
scalar Scenario.node[13].nic.mac1609_4 TooLittleTime 0
scalar Scenario.node[13].nic.mac1609_4 TimesIntoBackoff 131
scalar Scenario.node[13].nic.mac1609_4 SlotsBackoff 182
scalar Scenario.node[13].nic.mac1609_4 NumInternalContention 0
scalar Scenario.node[13].nic.mac1609_4 totalBusyTime 0.273339
scalar Scenario.node[13].nic.mac1609_4 retriesExceeded:count 0
attr recordingmode count
attr source org_car2x_veins_modules_mac_sigRetriesExceeded
scalar Scenario.node[13].nic.mac1609_4 sentAcks:count 0
attr recordingmode count
attr source org_car2x_veins_modules_mac_sigSentAck
scalar Scenario.node[13].nic.mac1609_4 sentPackets:count 131
attr recordingmode count
attr source org_car2x_veins_modules_mac_sigSentPacket
scalar Scenario.node[13].nic.mac1609_4 collisions:count 0
attr recordingmode count
attr source org_car2x_veins_modules_mac_sigCollision
scalar Scenario.node[13].nic.mac1609_4 channelBusy:timeavg 0.020865572519084
attr recordingmode timeavg
attr source org_car2x_veins_modules_mac_sigChannelBusy
par Scenario.node[13].nic typename "\"org.car2x.veins.modules.nic.Nic80211p\""
par Scenario.node[13].nic connectionManagerName "\"connectionManager\""
par Scenario.node[13].veinsmobility typename "\"org.car2x.veins.modules.mobility.traci.TraCIMobility\""
par Scenario.node[13].veinsmobility notAffectedByHostState true
par Scenario.node[13].veinsmobility x 0
par Scenario.node[13].veinsmobility y 0
par Scenario.node[13].veinsmobility z 1.895
par Scenario.node[13].veinsmobility xOrientation 1
par Scenario.node[13].veinsmobility yOrientation 0
par Scenario.node[13].veinsmobility zOrientation 0
par Scenario.node[13].veinsmobility hostPositionOffset 0m
attr unit m
par Scenario.node[13].veinsmobility setHostSpeed false
par Scenario.node[13].veinsmobility accidentCount 0
par Scenario.node[13].veinsmobility accidentStart 42.4991s
attr unit s
par Scenario.node[13].veinsmobility accidentDuration "uniform(30s, 60s)"
attr unit s
par Scenario.node[13].veinsmobility accidentInterval "uniform(30s, 60s)"
attr unit s
scalar Scenario.node[13].veinsmobility startTime 13.1
scalar Scenario.node[13].veinsmobility totalTime 13
scalar Scenario.node[13].veinsmobility stopTime 26.2
scalar Scenario.node[13].veinsmobility minSpeed 0.25331873658695
scalar Scenario.node[13].veinsmobility maxSpeed 13.697302625012
scalar Scenario.node[13].veinsmobility totalDistance 133.32553055902
scalar Scenario.node[13].veinsmobility totalCO2Emission 47.080194457847
par Scenario.node[13] typename "\"org.car2x.veins.nodes.Car\""
par Scenario.node[13] applType "\"TraCIDemo11p\""
par Scenario.node[13] nicType "\"Nic80211p\""
par Scenario.node[13] veinsmobilityType "\"org.car2x.veins.modules.mobility.traci.TraCIMobility\""
par Scenario.node[6].appl typename "\"org.car2x.veins.modules.application.traci.TraCIDemo11p\""
par Scenario.node[6].appl headerLength 80bit
attr unit bit
par Scenario.node[6].appl sendBeacons true
par Scenario.node[6].appl beaconLengthBits 256bit
attr unit bit
par Scenario.node[6].appl beaconUserPriority 7
par Scenario.node[6].appl beaconInterval 0.1s
attr unit s
par Scenario.node[6].appl dataLengthBits 1024bit
attr unit bit
par Scenario.node[6].appl dataOnSch false
par Scenario.node[6].appl dataUserPriority 7
par Scenario.node[6].appl avoidBeaconSynchronization true
par Scenario.node[6].appl sendWSA false
par Scenario.node[6].appl wsaLengthBits 250bit
attr unit bit
par Scenario.node[6].appl wsaInterval 1s
attr unit s
scalar Scenario.node[6].appl generatedWSMs 0
scalar Scenario.node[6].appl receivedWSMs 1
scalar Scenario.node[6].appl generatedBSMs 266
scalar Scenario.node[6].appl receivedBSMs 4861
scalar Scenario.node[6].appl generatedWSAs 0
scalar Scenario.node[6].appl receivedWSAs 0
par Scenario.node[6].nic.phy80211p typename "\"org.car2x.veins.modules.phy.PhyLayer80211p\""
par Scenario.node[6].nic.phy80211p recordStats false
par Scenario.node[6].nic.phy80211p usePropagationDelay true
par Scenario.node[6].nic.phy80211p noiseFloor -98dBm
attr unit dBm
par Scenario.node[6].nic.phy80211p useNoiseFloor true
par Scenario.node[6].nic.phy80211p antenna "<root>...</root> at content:1"
par Scenario.node[6].nic.phy80211p antennaOffsetX 0m
attr unit m
par Scenario.node[6].nic.phy80211p antennaOffsetY 0m
attr unit m
par Scenario.node[6].nic.phy80211p antennaOffsetZ 1.895m
attr unit m
par Scenario.node[6].nic.phy80211p antennaOffsetYaw 0rad
attr unit rad
par Scenario.node[6].nic.phy80211p analogueModels "<root>...</root> at /home/vagrant/spe-homework-project/Project/simulations//config_1.xml:2"
par Scenario.node[6].nic.phy80211p decider "<root>...</root> at /home/vagrant/spe-homework-project/Project/simulations//config_1.xml:2"
par Scenario.node[6].nic.phy80211p minPowerLevel -110dBm
attr unit dBm
par Scenario.node[6].nic.phy80211p timeRXToTX 0s
attr unit s
par Scenario.node[6].nic.phy80211p timeRXToSleep 0s
attr unit s
par Scenario.node[6].nic.phy80211p timeTXToRX 0s
attr unit s
par Scenario.node[6].nic.phy80211p timeTXToSleep 0s
attr unit s
par Scenario.node[6].nic.phy80211p timeSleepToRX 0s
attr unit s
par Scenario.node[6].nic.phy80211p timeSleepToTX 0s
attr unit s
par Scenario.node[6].nic.phy80211p initialRadioState 0
par Scenario.node[6].nic.phy80211p radioMinAtt 1
par Scenario.node[6].nic.phy80211p radioMaxAtt 0
par Scenario.node[6].nic.phy80211p nbRadioChannels 1
par Scenario.node[6].nic.phy80211p initialRadioChannel 0
par Scenario.node[6].nic.phy80211p ccaThreshold -65dBm
attr unit dBm
par Scenario.node[6].nic.phy80211p collectCollisionStatistics false
par Scenario.node[6].nic.phy80211p allowTxDuringRx false
scalar Scenario.node[6].nic.phy80211p busyTime 0.019014135338345
par Scenario.node[6].nic.mac1609_4 typename "\"org.car2x.veins.modules.mac.ieee80211p.Mac1609_4\""
par Scenario.node[6].nic.mac1609_4 notAffectedByHostState false
par Scenario.node[6].nic.mac1609_4 headerLength 0bit
attr unit bit
par Scenario.node[6].nic.mac1609_4 address "\"auto\""
par Scenario.node[6].nic.mac1609_4 useServiceChannel false
par Scenario.node[6].nic.mac1609_4 serviceChannel 1
par Scenario.node[6].nic.mac1609_4 bitrate 6000000bps
attr unit bps
par Scenario.node[6].nic.mac1609_4 syncOffset 0.0003s
attr unit s
par Scenario.node[6].nic.mac1609_4 txPower 20mW
attr unit mW
par Scenario.node[6].nic.mac1609_4 queueSize 0
par Scenario.node[6].nic.mac1609_4 dot11RTSThreshold 12000bit
attr unit bit
par Scenario.node[6].nic.mac1609_4 dot11ShortRetryLimit 7
par Scenario.node[6].nic.mac1609_4 dot11LongRetryLimit 4
par Scenario.node[6].nic.mac1609_4 ackLength 112bit
attr unit bit
par Scenario.node[6].nic.mac1609_4 useAcks false
par Scenario.node[6].nic.mac1609_4 frameErrorRate 0
par Scenario.node[6].nic.mac1609_4 ackErrorRate 0
scalar Scenario.node[6].nic.mac1609_4 ReceivedUnicastPackets 0
scalar Scenario.node[6].nic.mac1609_4 ReceivedBroadcasts 4862
scalar Scenario.node[6].nic.mac1609_4 SentPackets 266
scalar Scenario.node[6].nic.mac1609_4 SentAcknowledgements 0
scalar Scenario.node[6].nic.mac1609_4 RetriesExceeded 0
scalar Scenario.node[6].nic.mac1609_4 SNIRLostPackets 0
scalar Scenario.node[6].nic.mac1609_4 RXTXLostPackets 0
scalar Scenario.node[6].nic.mac1609_4 TotalLostPackets 0
scalar Scenario.node[6].nic.mac1609_4 DroppedPacketsInMac 0
scalar Scenario.node[6].nic.mac1609_4 TooLittleTime 0
scalar Scenario.node[6].nic.mac1609_4 TimesIntoBackoff 266
scalar Scenario.node[6].nic.mac1609_4 SlotsBackoff 414
scalar Scenario.node[6].nic.mac1609_4 NumInternalContention 0
scalar Scenario.node[6].nic.mac1609_4 totalBusyTime 0.533706
scalar Scenario.node[6].nic.mac1609_4 retriesExceeded:count 0
attr recordingmode count
attr source org_car2x_veins_modules_mac_sigRetriesExceeded
scalar Scenario.node[6].nic.mac1609_4 sentAcks:count 0
attr recordingmode count
attr source org_car2x_veins_modules_mac_sigSentAck
scalar Scenario.node[6].nic.mac1609_4 sentPackets:count 266
attr recordingmode count
attr source org_car2x_veins_modules_mac_sigSentPacket
scalar Scenario.node[6].nic.mac1609_4 collisions:count 0
attr recordingmode count
attr source org_car2x_veins_modules_mac_sigCollision
scalar Scenario.node[6].nic.mac1609_4 channelBusy:timeavg 0.020064135338345
attr recordingmode timeavg
attr source org_car2x_veins_modules_mac_sigChannelBusy
par Scenario.node[6].nic typename "\"org.car2x.veins.modules.nic.Nic80211p\""
par Scenario.node[6].nic connectionManagerName "\"connectionManager\""
par Scenario.node[6].veinsmobility typename "\"org.car2x.veins.modules.mobility.traci.TraCIMobility\""
par Scenario.node[6].veinsmobility notAffectedByHostState true
par Scenario.node[6].veinsmobility x 0
par Scenario.node[6].veinsmobility y 0
par Scenario.node[6].veinsmobility z 1.895
par Scenario.node[6].veinsmobility xOrientation 1
par Scenario.node[6].veinsmobility yOrientation 0
par Scenario.node[6].veinsmobility zOrientation 0
par Scenario.node[6].veinsmobility hostPositionOffset 0m
attr unit m
par Scenario.node[6].veinsmobility setHostSpeed false
par Scenario.node[6].veinsmobility accidentCount 0
par Scenario.node[6].veinsmobility accidentStart 38.9746s
attr unit s
par Scenario.node[6].veinsmobility accidentDuration "uniform(30s, 60s)"
attr unit s
par Scenario.node[6].veinsmobility accidentInterval "uniform(30s, 60s)"
attr unit s
scalar Scenario.node[6].veinsmobility startTime 6.1
scalar Scenario.node[6].veinsmobility totalTime 26.5
scalar Scenario.node[6].veinsmobility stopTime 32.7
scalar Scenario.node[6].veinsmobility minSpeed 0.25799588305899
scalar Scenario.node[6].veinsmobility maxSpeed 13.131348027791
scalar Scenario.node[6].veinsmobility totalDistance 277.8537577705
scalar Scenario.node[6].veinsmobility totalCO2Emission 86.224724363963
par Scenario.node[6] typename "\"org.car2x.veins.nodes.Car\""
par Scenario.node[6] applType "\"TraCIDemo11p\""
par Scenario.node[6] nicType "\"Nic80211p\""
par Scenario.node[6] veinsmobilityType "\"org.car2x.veins.modules.mobility.traci.TraCIMobility\""
par Scenario.node[7].appl typename "\"org.car2x.veins.modules.application.traci.TraCIDemo11p\""
par Scenario.node[7].appl headerLength 80bit
attr unit bit
par Scenario.node[7].appl sendBeacons true
par Scenario.node[7].appl beaconLengthBits 256bit
attr unit bit
par Scenario.node[7].appl beaconUserPriority 7
par Scenario.node[7].appl beaconInterval 0.1s
attr unit s
par Scenario.node[7].appl dataLengthBits 1024bit
attr unit bit
par Scenario.node[7].appl dataOnSch false
par Scenario.node[7].appl dataUserPriority 7
par Scenario.node[7].appl avoidBeaconSynchronization true
par Scenario.node[7].appl sendWSA false
par Scenario.node[7].appl wsaLengthBits 250bit
attr unit bit
par Scenario.node[7].appl wsaInterval 1s
attr unit s
scalar Scenario.node[7].appl generatedWSMs 1
scalar Scenario.node[7].appl receivedWSMs 30
scalar Scenario.node[7].appl generatedBSMs 308
scalar Scenario.node[7].appl receivedBSMs 6437
scalar Scenario.node[7].appl generatedWSAs 0
scalar Scenario.node[7].appl receivedWSAs 0
par Scenario.node[7].nic.phy80211p typename "\"org.car2x.veins.modules.phy.PhyLayer80211p\""
par Scenario.node[7].nic.phy80211p recordStats false
par Scenario.node[7].nic.phy80211p usePropagationDelay true
par Scenario.node[7].nic.phy80211p noiseFloor -98dBm
attr unit dBm
par Scenario.node[7].nic.phy80211p useNoiseFloor true
par Scenario.node[7].nic.phy80211p antenna "<root>...</root> at content:1"
par Scenario.node[7].nic.phy80211p antennaOffsetX 0m
attr unit m
par Scenario.node[7].nic.phy80211p antennaOffsetY 0m
attr unit m
par Scenario.node[7].nic.phy80211p antennaOffsetZ 1.895m
attr unit m
par Scenario.node[7].nic.phy80211p antennaOffsetYaw 0rad
attr unit rad
par Scenario.node[7].nic.phy80211p analogueModels "<root>...</root> at /home/vagrant/spe-homework-project/Project/simulations//config_1.xml:2"
par Scenario.node[7].nic.phy80211p decider "<root>...</root> at /home/vagrant/spe-homework-project/Project/simulations//config_1.xml:2"
par Scenario.node[7].nic.phy80211p minPowerLevel -110dBm
attr unit dBm
par Scenario.node[7].nic.phy80211p timeRXToTX 0s
attr unit s
par Scenario.node[7].nic.phy80211p timeRXToSleep 0s
attr unit s
par Scenario.node[7].nic.phy80211p timeTXToRX 0s
attr unit s
par Scenario.node[7].nic.phy80211p timeTXToSleep 0s
attr unit s
par Scenario.node[7].nic.phy80211p timeSleepToRX 0s
attr unit s
par Scenario.node[7].nic.phy80211p timeSleepToTX 0s
attr unit s
par Scenario.node[7].nic.phy80211p initialRadioState 0
par Scenario.node[7].nic.phy80211p radioMinAtt 1
par Scenario.node[7].nic.phy80211p radioMaxAtt 0
par Scenario.node[7].nic.phy80211p nbRadioChannels 1
par Scenario.node[7].nic.phy80211p initialRadioChannel 0
par Scenario.node[7].nic.phy80211p ccaThreshold -65dBm
attr unit dBm
par Scenario.node[7].nic.phy80211p collectCollisionStatistics false
par Scenario.node[7].nic.phy80211p allowTxDuringRx false
scalar Scenario.node[7].nic.phy80211p busyTime 0.021961298701298
par Scenario.node[7].nic.mac1609_4 typename "\"org.car2x.veins.modules.mac.ieee80211p.Mac1609_4\""
par Scenario.node[7].nic.mac1609_4 notAffectedByHostState false
par Scenario.node[7].nic.mac1609_4 headerLength 0bit
attr unit bit
par Scenario.node[7].nic.mac1609_4 address "\"auto\""
par Scenario.node[7].nic.mac1609_4 useServiceChannel false
par Scenario.node[7].nic.mac1609_4 serviceChannel 1
par Scenario.node[7].nic.mac1609_4 bitrate 6000000bps
attr unit bps
par Scenario.node[7].nic.mac1609_4 syncOffset 0.0003s
attr unit s
par Scenario.node[7].nic.mac1609_4 txPower 20mW
attr unit mW
par Scenario.node[7].nic.mac1609_4 queueSize 0
par Scenario.node[7].nic.mac1609_4 dot11RTSThreshold 12000bit
attr unit bit
par Scenario.node[7].nic.mac1609_4 dot11ShortRetryLimit 7
par Scenario.node[7].nic.mac1609_4 dot11LongRetryLimit 4
par Scenario.node[7].nic.mac1609_4 ackLength 112bit
attr unit bit
par Scenario.node[7].nic.mac1609_4 useAcks false
par Scenario.node[7].nic.mac1609_4 frameErrorRate 0
par Scenario.node[7].nic.mac1609_4 ackErrorRate 0
scalar Scenario.node[7].nic.mac1609_4 ReceivedUnicastPackets 0
scalar Scenario.node[7].nic.mac1609_4 ReceivedBroadcasts 6467
scalar Scenario.node[7].nic.mac1609_4 SentPackets 309
scalar Scenario.node[7].nic.mac1609_4 SentAcknowledgements 0
scalar Scenario.node[7].nic.mac1609_4 RetriesExceeded 0
scalar Scenario.node[7].nic.mac1609_4 SNIRLostPackets 0
scalar Scenario.node[7].nic.mac1609_4 RXTXLostPackets 0
scalar Scenario.node[7].nic.mac1609_4 TotalLostPackets 0
scalar Scenario.node[7].nic.mac1609_4 DroppedPacketsInMac 0
scalar Scenario.node[7].nic.mac1609_4 TooLittleTime 0
scalar Scenario.node[7].nic.mac1609_4 TimesIntoBackoff 309
scalar Scenario.node[7].nic.mac1609_4 SlotsBackoff 445
scalar Scenario.node[7].nic.mac1609_4 NumInternalContention 0
scalar Scenario.node[7].nic.mac1609_4 totalBusyTime 0.708981
scalar Scenario.node[7].nic.mac1609_4 retriesExceeded:count 0
attr recordingmode count
attr source org_car2x_veins_modules_mac_sigRetriesExceeded
scalar Scenario.node[7].nic.mac1609_4 sentAcks:count 0
attr recordingmode count
attr source org_car2x_veins_modules_mac_sigSentAck
scalar Scenario.node[7].nic.mac1609_4 sentPackets:count 309
attr recordingmode count
attr source org_car2x_veins_modules_mac_sigSentPacket
scalar Scenario.node[7].nic.mac1609_4 collisions:count 0
attr recordingmode count
attr source org_car2x_veins_modules_mac_sigCollision
scalar Scenario.node[7].nic.mac1609_4 channelBusy:timeavg 0.023018863636363
attr recordingmode timeavg
attr source org_car2x_veins_modules_mac_sigChannelBusy
par Scenario.node[7].nic typename "\"org.car2x.veins.modules.nic.Nic80211p\""
par Scenario.node[7].nic connectionManagerName "\"connectionManager\""
par Scenario.node[7].veinsmobility typename "\"org.car2x.veins.modules.mobility.traci.TraCIMobility\""
par Scenario.node[7].veinsmobility notAffectedByHostState true
par Scenario.node[7].veinsmobility x 0
par Scenario.node[7].veinsmobility y 0
par Scenario.node[7].veinsmobility z 1.895
par Scenario.node[7].veinsmobility xOrientation 1
par Scenario.node[7].veinsmobility yOrientation 0
par Scenario.node[7].veinsmobility zOrientation 0
par Scenario.node[7].veinsmobility hostPositionOffset 0m
attr unit m
par Scenario.node[7].veinsmobility setHostSpeed false
par Scenario.node[7].veinsmobility accidentCount 0
par Scenario.node[7].veinsmobility accidentStart 40.2422s
attr unit s
par Scenario.node[7].veinsmobility accidentDuration "uniform(30s, 60s)"
attr unit s
par Scenario.node[7].veinsmobility accidentInterval "uniform(30s, 60s)"
attr unit s
scalar Scenario.node[7].veinsmobility startTime 7.1
scalar Scenario.node[7].veinsmobility totalTime 30.7
scalar Scenario.node[7].veinsmobility stopTime 37.9
scalar Scenario.node[7].veinsmobility minSpeed 0.2516025879411
scalar Scenario.node[7].veinsmobility maxSpeed 10.616659496242
scalar Scenario.node[7].veinsmobility totalDistance 279.66223025785
scalar Scenario.node[7].veinsmobility totalCO2Emission 77.461922285037
par Scenario.node[7] typename "\"org.car2x.veins.nodes.Car\""
par Scenario.node[7] applType "\"TraCIDemo11p\""
par Scenario.node[7] nicType "\"Nic80211p\""
par Scenario.node[7] veinsmobilityType "\"org.car2x.veins.modules.mobility.traci.TraCIMobility\""
par Scenario.node[0].appl typename "\"org.car2x.veins.modules.application.traci.TraCIDemo11p\""
par Scenario.node[0].appl headerLength 80bit
attr unit bit
par Scenario.node[0].appl sendBeacons true
par Scenario.node[0].appl beaconLengthBits 256bit
attr unit bit
par Scenario.node[0].appl beaconUserPriority 7
par Scenario.node[0].appl beaconInterval 0.1s
attr unit s
par Scenario.node[0].appl dataLengthBits 1024bit
attr unit bit
par Scenario.node[0].appl dataOnSch false
par Scenario.node[0].appl dataUserPriority 7
par Scenario.node[0].appl avoidBeaconSynchronization true
par Scenario.node[0].appl sendWSA false
par Scenario.node[0].appl wsaLengthBits 250bit
attr unit bit
par Scenario.node[0].appl wsaInterval 1s
attr unit s
scalar Scenario.node[0].appl generatedWSMs 1
scalar Scenario.node[0].appl receivedWSMs 34
scalar Scenario.node[0].appl generatedBSMs 470
scalar Scenario.node[0].appl receivedBSMs 10088
scalar Scenario.node[0].appl generatedWSAs 0
scalar Scenario.node[0].appl receivedWSAs 0
par Scenario.node[0].nic.phy80211p typename "\"org.car2x.veins.modules.phy.PhyLayer80211p\""
par Scenario.node[0].nic.phy80211p recordStats false
par Scenario.node[0].nic.phy80211p usePropagationDelay true
par Scenario.node[0].nic.phy80211p noiseFloor -98dBm
attr unit dBm
par Scenario.node[0].nic.phy80211p useNoiseFloor true
par Scenario.node[0].nic.phy80211p antenna "<root>...</root> at content:1"
par Scenario.node[0].nic.phy80211p antennaOffsetX 0m
attr unit m
par Scenario.node[0].nic.phy80211p antennaOffsetY 0m
attr unit m
par Scenario.node[0].nic.phy80211p antennaOffsetZ 1.895m
attr unit m
par Scenario.node[0].nic.phy80211p antennaOffsetYaw 0rad
attr unit rad
par Scenario.node[0].nic.phy80211p analogueModels "<root>...</root> at /home/vagrant/spe-homework-project/Project/simulations//config_1.xml:2"
par Scenario.node[0].nic.phy80211p decider "<root>...</root> at /home/vagrant/spe-homework-project/Project/simulations//config_1.xml:2"
par Scenario.node[0].nic.phy80211p minPowerLevel -110dBm
attr unit dBm
par Scenario.node[0].nic.phy80211p timeRXToTX 0s
attr unit s
par Scenario.node[0].nic.phy80211p timeRXToSleep 0s
attr unit s
par Scenario.node[0].nic.phy80211p timeTXToRX 0s
attr unit s
par Scenario.node[0].nic.phy80211p timeTXToSleep 0s
attr unit s
par Scenario.node[0].nic.phy80211p timeSleepToRX 0s
attr unit s
par Scenario.node[0].nic.phy80211p timeSleepToTX 0s
attr unit s
par Scenario.node[0].nic.phy80211p initialRadioState 0
par Scenario.node[0].nic.phy80211p radioMinAtt 1
par Scenario.node[0].nic.phy80211p radioMaxAtt 0
par Scenario.node[0].nic.phy80211p nbRadioChannels 1
par Scenario.node[0].nic.phy80211p initialRadioChannel 0
par Scenario.node[0].nic.phy80211p ccaThreshold -65dBm
attr unit dBm
par Scenario.node[0].nic.phy80211p collectCollisionStatistics false
par Scenario.node[0].nic.phy80211p allowTxDuringRx false
scalar Scenario.node[0].nic.phy80211p busyTime 0.022490212765958
par Scenario.node[0].nic.mac1609_4 typename "\"org.car2x.veins.modules.mac.ieee80211p.Mac1609_4\""
par Scenario.node[0].nic.mac1609_4 notAffectedByHostState false
par Scenario.node[0].nic.mac1609_4 headerLength 0bit
attr unit bit
par Scenario.node[0].nic.mac1609_4 address "\"auto\""
par Scenario.node[0].nic.mac1609_4 useServiceChannel false
par Scenario.node[0].nic.mac1609_4 serviceChannel 1
par Scenario.node[0].nic.mac1609_4 bitrate 6000000bps
attr unit bps
par Scenario.node[0].nic.mac1609_4 syncOffset 0.0003s
attr unit s
par Scenario.node[0].nic.mac1609_4 txPower 20mW
attr unit mW
par Scenario.node[0].nic.mac1609_4 queueSize 0
par Scenario.node[0].nic.mac1609_4 dot11RTSThreshold 12000bit
attr unit bit
par Scenario.node[0].nic.mac1609_4 dot11ShortRetryLimit 7
par Scenario.node[0].nic.mac1609_4 dot11LongRetryLimit 4
par Scenario.node[0].nic.mac1609_4 ackLength 112bit
attr unit bit
par Scenario.node[0].nic.mac1609_4 useAcks false
par Scenario.node[0].nic.mac1609_4 frameErrorRate 0
par Scenario.node[0].nic.mac1609_4 ackErrorRate 0
scalar Scenario.node[0].nic.mac1609_4 ReceivedUnicastPackets 0
scalar Scenario.node[0].nic.mac1609_4 ReceivedBroadcasts 10122
scalar Scenario.node[0].nic.mac1609_4 SentPackets 471
scalar Scenario.node[0].nic.mac1609_4 SentAcknowledgements 0
scalar Scenario.node[0].nic.mac1609_4 RetriesExceeded 0
scalar Scenario.node[0].nic.mac1609_4 SNIRLostPackets 0
scalar Scenario.node[0].nic.mac1609_4 RXTXLostPackets 0
scalar Scenario.node[0].nic.mac1609_4 TotalLostPackets 0
scalar Scenario.node[0].nic.mac1609_4 DroppedPacketsInMac 0
scalar Scenario.node[0].nic.mac1609_4 TooLittleTime 0
scalar Scenario.node[0].nic.mac1609_4 TimesIntoBackoff 471
scalar Scenario.node[0].nic.mac1609_4 SlotsBackoff 702
scalar Scenario.node[0].nic.mac1609_4 NumInternalContention 0
scalar Scenario.node[0].nic.mac1609_4 totalBusyTime 1.106623
scalar Scenario.node[0].nic.mac1609_4 retriesExceeded:count 0
attr recordingmode count
attr source org_car2x_veins_modules_mac_sigRetriesExceeded
scalar Scenario.node[0].nic.mac1609_4 sentAcks:count 0
attr recordingmode count
attr source org_car2x_veins_modules_mac_sigSentAck
scalar Scenario.node[0].nic.mac1609_4 sentPackets:count 471
attr recordingmode count
attr source org_car2x_veins_modules_mac_sigSentPacket
scalar Scenario.node[0].nic.mac1609_4 collisions:count 0
attr recordingmode count
attr source org_car2x_veins_modules_mac_sigCollision
scalar Scenario.node[0].nic.mac1609_4 channelBusy:timeavg 0.023545170212767
attr recordingmode timeavg
attr source org_car2x_veins_modules_mac_sigChannelBusy
par Scenario.node[0].nic typename "\"org.car2x.veins.modules.nic.Nic80211p\""
par Scenario.node[0].nic connectionManagerName "\"connectionManager\""
par Scenario.node[0].veinsmobility typename "\"org.car2x.veins.modules.mobility.traci.TraCIMobility\""
par Scenario.node[0].veinsmobility notAffectedByHostState true
par Scenario.node[0].veinsmobility x 0
par Scenario.node[0].veinsmobility y 0
par Scenario.node[0].veinsmobility z 1.895
par Scenario.node[0].veinsmobility xOrientation 1
par Scenario.node[0].veinsmobility yOrientation 0
par Scenario.node[0].veinsmobility zOrientation 0
par Scenario.node[0].veinsmobility hostPositionOffset 0m
attr unit m
par Scenario.node[0].veinsmobility setHostSpeed false
par Scenario.node[0].veinsmobility accidentCount 0
par Scenario.node[0].veinsmobility accidentStart 46.4644s
attr unit s
par Scenario.node[0].veinsmobility accidentDuration "uniform(30s, 60s)"
attr unit s
par Scenario.node[0].veinsmobility accidentInterval "uniform(30s, 60s)"
attr unit s
scalar Scenario.node[0].veinsmobility startTime 0.1
scalar Scenario.node[0].veinsmobility totalTime 46.9
scalar Scenario.node[0].veinsmobility stopTime 47.1
scalar Scenario.node[0].veinsmobility minSpeed 0.25446562165231
scalar Scenario.node[0].veinsmobility maxSpeed 15.505396197811
scalar Scenario.node[0].veinsmobility totalDistance 570.66464742488
scalar Scenario.node[0].veinsmobility totalCO2Emission 174.07350560634
par Scenario.node[0] typename "\"org.car2x.veins.nodes.Car\""
par Scenario.node[0] applType "\"TraCIDemo11p\""
par Scenario.node[0] nicType "\"Nic80211p\""
par Scenario.node[0] veinsmobilityType "\"org.car2x.veins.modules.mobility.traci.TraCIMobility\""
par Scenario.node[10].appl typename "\"org.car2x.veins.modules.application.traci.TraCIDemo11p\""
par Scenario.node[10].appl headerLength 80bit
attr unit bit
par Scenario.node[10].appl sendBeacons true
par Scenario.node[10].appl beaconLengthBits 256bit
attr unit bit
par Scenario.node[10].appl beaconUserPriority 7
par Scenario.node[10].appl beaconInterval 0.1s
attr unit s
par Scenario.node[10].appl dataLengthBits 1024bit
attr unit bit
par Scenario.node[10].appl dataOnSch false
par Scenario.node[10].appl dataUserPriority 7
par Scenario.node[10].appl avoidBeaconSynchronization true
par Scenario.node[10].appl sendWSA false
par Scenario.node[10].appl wsaLengthBits 250bit
attr unit bit
par Scenario.node[10].appl wsaInterval 1s
attr unit s
scalar Scenario.node[10].appl generatedWSMs 1
scalar Scenario.node[10].appl receivedWSMs 34
scalar Scenario.node[10].appl generatedBSMs 405
scalar Scenario.node[10].appl receivedBSMs 11502
scalar Scenario.node[10].appl generatedWSAs 0
scalar Scenario.node[10].appl receivedWSAs 0
par Scenario.node[10].nic.phy80211p typename "\"org.car2x.veins.modules.phy.PhyLayer80211p\""
par Scenario.node[10].nic.phy80211p recordStats false
par Scenario.node[10].nic.phy80211p usePropagationDelay true
par Scenario.node[10].nic.phy80211p noiseFloor -98dBm
attr unit dBm
par Scenario.node[10].nic.phy80211p useNoiseFloor true
par Scenario.node[10].nic.phy80211p antenna "<root>...</root> at content:1"
par Scenario.node[10].nic.phy80211p antennaOffsetX 0m
attr unit m
par Scenario.node[10].nic.phy80211p antennaOffsetY 0m
attr unit m
par Scenario.node[10].nic.phy80211p antennaOffsetZ 1.895m
attr unit m
par Scenario.node[10].nic.phy80211p antennaOffsetYaw 0rad
attr unit rad
par Scenario.node[10].nic.phy80211p analogueModels "<root>...</root> at /home/vagrant/spe-homework-project/Project/simulations//config_1.xml:2"
par Scenario.node[10].nic.phy80211p decider "<root>...</root> at /home/vagrant/spe-homework-project/Project/simulations//config_1.xml:2"
par Scenario.node[10].nic.phy80211p minPowerLevel -110dBm
attr unit dBm
par Scenario.node[10].nic.phy80211p timeRXToTX 0s
attr unit s
par Scenario.node[10].nic.phy80211p timeRXToSleep 0s
attr unit s
par Scenario.node[10].nic.phy80211p timeTXToRX 0s
attr unit s
par Scenario.node[10].nic.phy80211p timeTXToSleep 0s
attr unit s
par Scenario.node[10].nic.phy80211p timeSleepToRX 0s
attr unit s
par Scenario.node[10].nic.phy80211p timeSleepToTX 0s
attr unit s
par Scenario.node[10].nic.phy80211p initialRadioState 0
par Scenario.node[10].nic.phy80211p radioMinAtt 1
par Scenario.node[10].nic.phy80211p radioMaxAtt 0
par Scenario.node[10].nic.phy80211p nbRadioChannels 1
par Scenario.node[10].nic.phy80211p initialRadioChannel 0
par Scenario.node[10].nic.phy80211p ccaThreshold -65dBm
attr unit dBm
par Scenario.node[10].nic.phy80211p collectCollisionStatistics false
par Scenario.node[10].nic.phy80211p allowTxDuringRx false
scalar Scenario.node[10].nic.phy80211p busyTime 0.029730765432102
par Scenario.node[10].nic.mac1609_4 typename "\"org.car2x.veins.modules.mac.ieee80211p.Mac1609_4\""
par Scenario.node[10].nic.mac1609_4 notAffectedByHostState false
par Scenario.node[10].nic.mac1609_4 headerLength 0bit
attr unit bit
par Scenario.node[10].nic.mac1609_4 address "\"auto\""
par Scenario.node[10].nic.mac1609_4 useServiceChannel false
par Scenario.node[10].nic.mac1609_4 serviceChannel 1
par Scenario.node[10].nic.mac1609_4 bitrate 6000000bps
attr unit bps
par Scenario.node[10].nic.mac1609_4 syncOffset 0.0003s
attr unit s
par Scenario.node[10].nic.mac1609_4 txPower 20mW
attr unit mW
par Scenario.node[10].nic.mac1609_4 queueSize 0
par Scenario.node[10].nic.mac1609_4 dot11RTSThreshold 12000bit
attr unit bit
par Scenario.node[10].nic.mac1609_4 dot11ShortRetryLimit 7
par Scenario.node[10].nic.mac1609_4 dot11LongRetryLimit 4
par Scenario.node[10].nic.mac1609_4 ackLength 112bit
attr unit bit
par Scenario.node[10].nic.mac1609_4 useAcks false
par Scenario.node[10].nic.mac1609_4 frameErrorRate 0
par Scenario.node[10].nic.mac1609_4 ackErrorRate 0
scalar Scenario.node[10].nic.mac1609_4 ReceivedUnicastPackets 0
scalar Scenario.node[10].nic.mac1609_4 ReceivedBroadcasts 11536
scalar Scenario.node[10].nic.mac1609_4 SentPackets 406
scalar Scenario.node[10].nic.mac1609_4 SentAcknowledgements 0
scalar Scenario.node[10].nic.mac1609_4 RetriesExceeded 0
scalar Scenario.node[10].nic.mac1609_4 SNIRLostPackets 0
scalar Scenario.node[10].nic.mac1609_4 RXTXLostPackets 0
scalar Scenario.node[10].nic.mac1609_4 TotalLostPackets 0
scalar Scenario.node[10].nic.mac1609_4 DroppedPacketsInMac 0
scalar Scenario.node[10].nic.mac1609_4 TooLittleTime 0
scalar Scenario.node[10].nic.mac1609_4 TimesIntoBackoff 406
scalar Scenario.node[10].nic.mac1609_4 SlotsBackoff 602
scalar Scenario.node[10].nic.mac1609_4 NumInternalContention 0
scalar Scenario.node[10].nic.mac1609_4 totalBusyTime 1.246854
scalar Scenario.node[10].nic.mac1609_4 retriesExceeded:count 0
attr recordingmode count
attr source org_car2x_veins_modules_mac_sigRetriesExceeded
scalar Scenario.node[10].nic.mac1609_4 sentAcks:count 0
attr recordingmode count
attr source org_car2x_veins_modules_mac_sigSentAck
scalar Scenario.node[10].nic.mac1609_4 sentPackets:count 406
attr recordingmode count
attr source org_car2x_veins_modules_mac_sigSentPacket
scalar Scenario.node[10].nic.mac1609_4 collisions:count 0
attr recordingmode count
attr source org_car2x_veins_modules_mac_sigCollision
scalar Scenario.node[10].nic.mac1609_4 channelBusy:timeavg 0.030786518518523
attr recordingmode timeavg
attr source org_car2x_veins_modules_mac_sigChannelBusy
par Scenario.node[10].nic typename "\"org.car2x.veins.modules.nic.Nic80211p\""
par Scenario.node[10].nic connectionManagerName "\"connectionManager\""
par Scenario.node[10].veinsmobility typename "\"org.car2x.veins.modules.mobility.traci.TraCIMobility\""
par Scenario.node[10].veinsmobility notAffectedByHostState true
par Scenario.node[10].veinsmobility x 0
par Scenario.node[10].veinsmobility y 0
par Scenario.node[10].veinsmobility z 1.895
par Scenario.node[10].veinsmobility xOrientation 1
par Scenario.node[10].veinsmobility yOrientation 0
par Scenario.node[10].veinsmobility zOrientation 0
par Scenario.node[10].veinsmobility hostPositionOffset 0m
attr unit m
par Scenario.node[10].veinsmobility setHostSpeed false
par Scenario.node[10].veinsmobility accidentCount 0
par Scenario.node[10].veinsmobility accidentStart 33.1949s
attr unit s
par Scenario.node[10].veinsmobility accidentDuration "uniform(30s, 60s)"
attr unit s
par Scenario.node[10].veinsmobility accidentInterval "uniform(30s, 60s)"
attr unit s
scalar Scenario.node[10].veinsmobility startTime 11.1
scalar Scenario.node[10].veinsmobility totalTime 40.4
scalar Scenario.node[10].veinsmobility stopTime 51.6
scalar Scenario.node[10].veinsmobility minSpeed 0.25235429966287
scalar Scenario.node[10].veinsmobility maxSpeed 13.126937038422
scalar Scenario.node[10].veinsmobility totalDistance 428.12244553637
scalar Scenario.node[10].veinsmobility totalCO2Emission 130.3147607344
par Scenario.node[10] typename "\"org.car2x.veins.nodes.Car\""
par Scenario.node[10] applType "\"TraCIDemo11p\""
par Scenario.node[10] nicType "\"Nic80211p\""
par Scenario.node[10] veinsmobilityType "\"org.car2x.veins.modules.mobility.traci.TraCIMobility\""
par Scenario.node[16].appl typename "\"org.car2x.veins.modules.application.traci.TraCIDemo11p\""
par Scenario.node[16].appl headerLength 80bit
attr unit bit
par Scenario.node[16].appl sendBeacons true
par Scenario.node[16].appl beaconLengthBits 256bit
attr unit bit
par Scenario.node[16].appl beaconUserPriority 7
par Scenario.node[16].appl beaconInterval 0.1s
attr unit s
par Scenario.node[16].appl dataLengthBits 1024bit
attr unit bit
par Scenario.node[16].appl dataOnSch false
par Scenario.node[16].appl dataUserPriority 7
par Scenario.node[16].appl avoidBeaconSynchronization true
par Scenario.node[16].appl sendWSA false
par Scenario.node[16].appl wsaLengthBits 250bit
attr unit bit
par Scenario.node[16].appl wsaInterval 1s
attr unit s
scalar Scenario.node[16].appl generatedWSMs 1
scalar Scenario.node[16].appl receivedWSMs 34
scalar Scenario.node[16].appl generatedBSMs 386
scalar Scenario.node[16].appl receivedBSMs 12294
scalar Scenario.node[16].appl generatedWSAs 0
scalar Scenario.node[16].appl receivedWSAs 0
par Scenario.node[16].nic.phy80211p typename "\"org.car2x.veins.modules.phy.PhyLayer80211p\""
par Scenario.node[16].nic.phy80211p recordStats false
par Scenario.node[16].nic.phy80211p usePropagationDelay true
par Scenario.node[16].nic.phy80211p noiseFloor -98dBm
attr unit dBm
par Scenario.node[16].nic.phy80211p useNoiseFloor true
par Scenario.node[16].nic.phy80211p antenna "<root>...</root> at content:1"
par Scenario.node[16].nic.phy80211p antennaOffsetX 0m
attr unit m
par Scenario.node[16].nic.phy80211p antennaOffsetY 0m
attr unit m
par Scenario.node[16].nic.phy80211p antennaOffsetZ 1.895m
attr unit m
par Scenario.node[16].nic.phy80211p antennaOffsetYaw 0rad
attr unit rad
par Scenario.node[16].nic.phy80211p analogueModels "<root>...</root> at /home/vagrant/spe-homework-project/Project/simulations//config_1.xml:2"
par Scenario.node[16].nic.phy80211p decider "<root>...</root> at /home/vagrant/spe-homework-project/Project/simulations//config_1.xml:2"
par Scenario.node[16].nic.phy80211p minPowerLevel -110dBm
attr unit dBm
par Scenario.node[16].nic.phy80211p timeRXToTX 0s
attr unit s
par Scenario.node[16].nic.phy80211p timeRXToSleep 0s
attr unit s
par Scenario.node[16].nic.phy80211p timeTXToRX 0s
attr unit s
par Scenario.node[16].nic.phy80211p timeTXToSleep 0s
attr unit s
par Scenario.node[16].nic.phy80211p timeSleepToRX 0s
attr unit s
par Scenario.node[16].nic.phy80211p timeSleepToTX 0s
attr unit s
par Scenario.node[16].nic.phy80211p initialRadioState 0
par Scenario.node[16].nic.phy80211p radioMinAtt 1
par Scenario.node[16].nic.phy80211p radioMaxAtt 0
par Scenario.node[16].nic.phy80211p nbRadioChannels 1
par Scenario.node[16].nic.phy80211p initialRadioChannel 0
par Scenario.node[16].nic.phy80211p ccaThreshold -65dBm
attr unit dBm
par Scenario.node[16].nic.phy80211p collectCollisionStatistics false
par Scenario.node[16].nic.phy80211p allowTxDuringRx false
scalar Scenario.node[16].nic.phy80211p busyTime 0.03332808290156
par Scenario.node[16].nic.mac1609_4 typename "\"org.car2x.veins.modules.mac.ieee80211p.Mac1609_4\""
par Scenario.node[16].nic.mac1609_4 notAffectedByHostState false
par Scenario.node[16].nic.mac1609_4 headerLength 0bit
attr unit bit
par Scenario.node[16].nic.mac1609_4 address "\"auto\""
par Scenario.node[16].nic.mac1609_4 useServiceChannel false
par Scenario.node[16].nic.mac1609_4 serviceChannel 1
par Scenario.node[16].nic.mac1609_4 bitrate 6000000bps
attr unit bps
par Scenario.node[16].nic.mac1609_4 syncOffset 0.0003s
attr unit s
par Scenario.node[16].nic.mac1609_4 txPower 20mW
attr unit mW
par Scenario.node[16].nic.mac1609_4 queueSize 0
par Scenario.node[16].nic.mac1609_4 dot11RTSThreshold 12000bit
attr unit bit
par Scenario.node[16].nic.mac1609_4 dot11ShortRetryLimit 7
par Scenario.node[16].nic.mac1609_4 dot11LongRetryLimit 4
par Scenario.node[16].nic.mac1609_4 ackLength 112bit
attr unit bit
par Scenario.node[16].nic.mac1609_4 useAcks false
par Scenario.node[16].nic.mac1609_4 frameErrorRate 0
par Scenario.node[16].nic.mac1609_4 ackErrorRate 0
scalar Scenario.node[16].nic.mac1609_4 ReceivedUnicastPackets 0
scalar Scenario.node[16].nic.mac1609_4 ReceivedBroadcasts 12328
scalar Scenario.node[16].nic.mac1609_4 SentPackets 387
scalar Scenario.node[16].nic.mac1609_4 SentAcknowledgements 0
scalar Scenario.node[16].nic.mac1609_4 RetriesExceeded 0
scalar Scenario.node[16].nic.mac1609_4 SNIRLostPackets 0
scalar Scenario.node[16].nic.mac1609_4 RXTXLostPackets 0
scalar Scenario.node[16].nic.mac1609_4 TotalLostPackets 0
scalar Scenario.node[16].nic.mac1609_4 DroppedPacketsInMac 0
scalar Scenario.node[16].nic.mac1609_4 TooLittleTime 0
scalar Scenario.node[16].nic.mac1609_4 TimesIntoBackoff 387
scalar Scenario.node[16].nic.mac1609_4 SlotsBackoff 576
scalar Scenario.node[16].nic.mac1609_4 NumInternalContention 0
scalar Scenario.node[16].nic.mac1609_4 totalBusyTime 1.327227
scalar Scenario.node[16].nic.mac1609_4 retriesExceeded:count 0
attr recordingmode count
attr source org_car2x_veins_modules_mac_sigRetriesExceeded
scalar Scenario.node[16].nic.mac1609_4 sentAcks:count 0
attr recordingmode count
attr source org_car2x_veins_modules_mac_sigSentAck
scalar Scenario.node[16].nic.mac1609_4 sentPackets:count 387
attr recordingmode count
attr source org_car2x_veins_modules_mac_sigSentPacket
scalar Scenario.node[16].nic.mac1609_4 collisions:count 0
attr recordingmode count
attr source org_car2x_veins_modules_mac_sigCollision
scalar Scenario.node[16].nic.mac1609_4 channelBusy:timeavg 0.034384119170992
attr recordingmode timeavg
attr source org_car2x_veins_modules_mac_sigChannelBusy
par Scenario.node[16].nic typename "\"org.car2x.veins.modules.nic.Nic80211p\""
par Scenario.node[16].nic connectionManagerName "\"connectionManager\""
par Scenario.node[16].veinsmobility typename "\"org.car2x.veins.modules.mobility.traci.TraCIMobility\""
par Scenario.node[16].veinsmobility notAffectedByHostState true
par Scenario.node[16].veinsmobility x 0
par Scenario.node[16].veinsmobility y 0
par Scenario.node[16].veinsmobility z 1.895
par Scenario.node[16].veinsmobility xOrientation 1
par Scenario.node[16].veinsmobility yOrientation 0
par Scenario.node[16].veinsmobility zOrientation 0
par Scenario.node[16].veinsmobility hostPositionOffset 0m
attr unit m
par Scenario.node[16].veinsmobility setHostSpeed false
par Scenario.node[16].veinsmobility accidentCount 0
par Scenario.node[16].veinsmobility accidentStart 49.0207s
attr unit s
par Scenario.node[16].veinsmobility accidentDuration "uniform(30s, 60s)"
attr unit s
par Scenario.node[16].veinsmobility accidentInterval "uniform(30s, 60s)"
attr unit s
scalar Scenario.node[16].veinsmobility startTime 16.1
scalar Scenario.node[16].veinsmobility totalTime 38.5
scalar Scenario.node[16].veinsmobility stopTime 54.7
scalar Scenario.node[16].veinsmobility minSpeed 0.2475197750791
scalar Scenario.node[16].veinsmobility maxSpeed 14.682855974309
scalar Scenario.node[16].veinsmobility totalDistance 420.9648480411
scalar Scenario.node[16].veinsmobility totalCO2Emission 142.43318362182
par Scenario.node[16] typename "\"org.car2x.veins.nodes.Car\""
par Scenario.node[16] applType "\"TraCIDemo11p\""
par Scenario.node[16] nicType "\"Nic80211p\""
par Scenario.node[16] veinsmobilityType "\"org.car2x.veins.modules.mobility.traci.TraCIMobility\""
par Scenario.node[2].appl typename "\"org.car2x.veins.modules.application.traci.TraCIDemo11p\""
par Scenario.node[2].appl headerLength 80bit
attr unit bit
par Scenario.node[2].appl sendBeacons true
par Scenario.node[2].appl beaconLengthBits 256bit
attr unit bit
par Scenario.node[2].appl beaconUserPriority 7
par Scenario.node[2].appl beaconInterval 0.1s
attr unit s
par Scenario.node[2].appl dataLengthBits 1024bit
attr unit bit
par Scenario.node[2].appl dataOnSch false
par Scenario.node[2].appl dataUserPriority 7
par Scenario.node[2].appl avoidBeaconSynchronization true
par Scenario.node[2].appl sendWSA false
par Scenario.node[2].appl wsaLengthBits 250bit
attr unit bit
par Scenario.node[2].appl wsaInterval 1s
attr unit s
scalar Scenario.node[2].appl generatedWSMs 1
scalar Scenario.node[2].appl receivedWSMs 34
scalar Scenario.node[2].appl generatedBSMs 528
scalar Scenario.node[2].appl receivedBSMs 13562
scalar Scenario.node[2].appl generatedWSAs 0
scalar Scenario.node[2].appl receivedWSAs 0
par Scenario.node[2].nic.phy80211p typename "\"org.car2x.veins.modules.phy.PhyLayer80211p\""
par Scenario.node[2].nic.phy80211p recordStats false
par Scenario.node[2].nic.phy80211p usePropagationDelay true
par Scenario.node[2].nic.phy80211p noiseFloor -98dBm
attr unit dBm
par Scenario.node[2].nic.phy80211p useNoiseFloor true
par Scenario.node[2].nic.phy80211p antenna "<root>...</root> at content:1"
par Scenario.node[2].nic.phy80211p antennaOffsetX 0m
attr unit m
par Scenario.node[2].nic.phy80211p antennaOffsetY 0m
attr unit m
par Scenario.node[2].nic.phy80211p antennaOffsetZ 1.895m
attr unit m
par Scenario.node[2].nic.phy80211p antennaOffsetYaw 0rad
attr unit rad
par Scenario.node[2].nic.phy80211p analogueModels "<root>...</root> at /home/vagrant/spe-homework-project/Project/simulations//config_1.xml:2"
par Scenario.node[2].nic.phy80211p decider "<root>...</root> at /home/vagrant/spe-homework-project/Project/simulations//config_1.xml:2"
par Scenario.node[2].nic.phy80211p minPowerLevel -110dBm
attr unit dBm
par Scenario.node[2].nic.phy80211p timeRXToTX 0s
attr unit s
par Scenario.node[2].nic.phy80211p timeRXToSleep 0s
attr unit s
par Scenario.node[2].nic.phy80211p timeTXToRX 0s
attr unit s
par Scenario.node[2].nic.phy80211p timeTXToSleep 0s
attr unit s
par Scenario.node[2].nic.phy80211p timeSleepToRX 0s
attr unit s
par Scenario.node[2].nic.phy80211p timeSleepToTX 0s
attr unit s
par Scenario.node[2].nic.phy80211p initialRadioState 0
par Scenario.node[2].nic.phy80211p radioMinAtt 1
par Scenario.node[2].nic.phy80211p radioMaxAtt 0
par Scenario.node[2].nic.phy80211p nbRadioChannels 1
par Scenario.node[2].nic.phy80211p initialRadioChannel 0
par Scenario.node[2].nic.phy80211p ccaThreshold -65dBm
attr unit dBm
par Scenario.node[2].nic.phy80211p collectCollisionStatistics false
par Scenario.node[2].nic.phy80211p allowTxDuringRx false
scalar Scenario.node[2].nic.phy80211p busyTime 0.026862424242431
par Scenario.node[2].nic.mac1609_4 typename "\"org.car2x.veins.modules.mac.ieee80211p.Mac1609_4\""
par Scenario.node[2].nic.mac1609_4 notAffectedByHostState false
par Scenario.node[2].nic.mac1609_4 headerLength 0bit
attr unit bit
par Scenario.node[2].nic.mac1609_4 address "\"auto\""
par Scenario.node[2].nic.mac1609_4 useServiceChannel false
par Scenario.node[2].nic.mac1609_4 serviceChannel 1
par Scenario.node[2].nic.mac1609_4 bitrate 6000000bps
attr unit bps
par Scenario.node[2].nic.mac1609_4 syncOffset 0.0003s
attr unit s
par Scenario.node[2].nic.mac1609_4 txPower 20mW
attr unit mW
par Scenario.node[2].nic.mac1609_4 queueSize 0
par Scenario.node[2].nic.mac1609_4 dot11RTSThreshold 12000bit
attr unit bit
par Scenario.node[2].nic.mac1609_4 dot11ShortRetryLimit 7
par Scenario.node[2].nic.mac1609_4 dot11LongRetryLimit 4
par Scenario.node[2].nic.mac1609_4 ackLength 112bit
attr unit bit
par Scenario.node[2].nic.mac1609_4 useAcks false
par Scenario.node[2].nic.mac1609_4 frameErrorRate 0
par Scenario.node[2].nic.mac1609_4 ackErrorRate 0
scalar Scenario.node[2].nic.mac1609_4 ReceivedUnicastPackets 0
scalar Scenario.node[2].nic.mac1609_4 ReceivedBroadcasts 13596
scalar Scenario.node[2].nic.mac1609_4 SentPackets 529
scalar Scenario.node[2].nic.mac1609_4 SentAcknowledgements 0
scalar Scenario.node[2].nic.mac1609_4 RetriesExceeded 0
scalar Scenario.node[2].nic.mac1609_4 SNIRLostPackets 0
scalar Scenario.node[2].nic.mac1609_4 RXTXLostPackets 0
scalar Scenario.node[2].nic.mac1609_4 TotalLostPackets 0
scalar Scenario.node[2].nic.mac1609_4 DroppedPacketsInMac 0
scalar Scenario.node[2].nic.mac1609_4 TooLittleTime 0
scalar Scenario.node[2].nic.mac1609_4 TimesIntoBackoff 529
scalar Scenario.node[2].nic.mac1609_4 SlotsBackoff 789
scalar Scenario.node[2].nic.mac1609_4 NumInternalContention 0
scalar Scenario.node[2].nic.mac1609_4 totalBusyTime 1.474009
scalar Scenario.node[2].nic.mac1609_4 retriesExceeded:count 0
attr recordingmode count
attr source org_car2x_veins_modules_mac_sigRetriesExceeded
scalar Scenario.node[2].nic.mac1609_4 sentAcks:count 0
attr recordingmode count
attr source org_car2x_veins_modules_mac_sigSentAck
scalar Scenario.node[2].nic.mac1609_4 sentPackets:count 529
attr recordingmode count
attr source org_car2x_veins_modules_mac_sigSentPacket
scalar Scenario.node[2].nic.mac1609_4 collisions:count 0
attr recordingmode count
attr source org_car2x_veins_modules_mac_sigCollision
scalar Scenario.node[2].nic.mac1609_4 channelBusy:timeavg 0.02791683712122
attr recordingmode timeavg
attr source org_car2x_veins_modules_mac_sigChannelBusy
par Scenario.node[2].nic typename "\"org.car2x.veins.modules.nic.Nic80211p\""
par Scenario.node[2].nic connectionManagerName "\"connectionManager\""
par Scenario.node[2].veinsmobility typename "\"org.car2x.veins.modules.mobility.traci.TraCIMobility\""
par Scenario.node[2].veinsmobility notAffectedByHostState true
par Scenario.node[2].veinsmobility x 0
par Scenario.node[2].veinsmobility y 0
par Scenario.node[2].veinsmobility z 1.895
par Scenario.node[2].veinsmobility xOrientation 1
par Scenario.node[2].veinsmobility yOrientation 0
par Scenario.node[2].veinsmobility zOrientation 0
par Scenario.node[2].veinsmobility hostPositionOffset 0m
attr unit m
par Scenario.node[2].veinsmobility setHostSpeed false
par Scenario.node[2].veinsmobility accidentCount 0
par Scenario.node[2].veinsmobility accidentStart 47.1059s
attr unit s
par Scenario.node[2].veinsmobility accidentDuration "uniform(30s, 60s)"
attr unit s
par Scenario.node[2].veinsmobility accidentInterval "uniform(30s, 60s)"
attr unit s
scalar Scenario.node[2].veinsmobility startTime 2.1
scalar Scenario.node[2].veinsmobility totalTime 52.7
scalar Scenario.node[2].veinsmobility stopTime 54.9
scalar Scenario.node[2].veinsmobility minSpeed 0
scalar Scenario.node[2].veinsmobility maxSpeed 14.305963321559
scalar Scenario.node[2].veinsmobility totalDistance 577.44382141682
scalar Scenario.node[2].veinsmobility totalCO2Emission 181.26451359997
par Scenario.node[2] typename "\"org.car2x.veins.nodes.Car\""
par Scenario.node[2] applType "\"TraCIDemo11p\""
par Scenario.node[2] nicType "\"Nic80211p\""
par Scenario.node[2] veinsmobilityType "\"org.car2x.veins.modules.mobility.traci.TraCIMobility\""
par Scenario.node[8].appl typename "\"org.car2x.veins.modules.application.traci.TraCIDemo11p\""
par Scenario.node[8].appl headerLength 80bit
attr unit bit
par Scenario.node[8].appl sendBeacons true
par Scenario.node[8].appl beaconLengthBits 256bit
attr unit bit
par Scenario.node[8].appl beaconUserPriority 7
par Scenario.node[8].appl beaconInterval 0.1s
attr unit s
par Scenario.node[8].appl dataLengthBits 1024bit
attr unit bit
par Scenario.node[8].appl dataOnSch false
par Scenario.node[8].appl dataUserPriority 7
par Scenario.node[8].appl avoidBeaconSynchronization true
par Scenario.node[8].appl sendWSA false
par Scenario.node[8].appl wsaLengthBits 250bit
attr unit bit
par Scenario.node[8].appl wsaInterval 1s
attr unit s
scalar Scenario.node[8].appl generatedWSMs 1
scalar Scenario.node[8].appl receivedWSMs 34
scalar Scenario.node[8].appl generatedBSMs 553
scalar Scenario.node[8].appl receivedBSMs 17579
scalar Scenario.node[8].appl generatedWSAs 0
scalar Scenario.node[8].appl receivedWSAs 0
par Scenario.node[8].nic.phy80211p typename "\"org.car2x.veins.modules.phy.PhyLayer80211p\""
par Scenario.node[8].nic.phy80211p recordStats false
par Scenario.node[8].nic.phy80211p usePropagationDelay true
par Scenario.node[8].nic.phy80211p noiseFloor -98dBm
attr unit dBm
par Scenario.node[8].nic.phy80211p useNoiseFloor true
par Scenario.node[8].nic.phy80211p antenna "<root>...</root> at content:1"
par Scenario.node[8].nic.phy80211p antennaOffsetX 0m
attr unit m
par Scenario.node[8].nic.phy80211p antennaOffsetY 0m
attr unit m
par Scenario.node[8].nic.phy80211p antennaOffsetZ 1.895m
attr unit m
par Scenario.node[8].nic.phy80211p antennaOffsetYaw 0rad
attr unit rad
par Scenario.node[8].nic.phy80211p analogueModels "<root>...</root> at /home/vagrant/spe-homework-project/Project/simulations//config_1.xml:2"
par Scenario.node[8].nic.phy80211p decider "<root>...</root> at /home/vagrant/spe-homework-project/Project/simulations//config_1.xml:2"
par Scenario.node[8].nic.phy80211p minPowerLevel -110dBm
attr unit dBm
par Scenario.node[8].nic.phy80211p timeRXToTX 0s
attr unit s
par Scenario.node[8].nic.phy80211p timeRXToSleep 0s
attr unit s
par Scenario.node[8].nic.phy80211p timeTXToRX 0s
attr unit s
par Scenario.node[8].nic.phy80211p timeTXToSleep 0s
attr unit s
par Scenario.node[8].nic.phy80211p timeSleepToRX 0s
attr unit s
par Scenario.node[8].nic.phy80211p timeSleepToTX 0s
attr unit s
par Scenario.node[8].nic.phy80211p initialRadioState 0
par Scenario.node[8].nic.phy80211p radioMinAtt 1
par Scenario.node[8].nic.phy80211p radioMaxAtt 0
par Scenario.node[8].nic.phy80211p nbRadioChannels 1
par Scenario.node[8].nic.phy80211p initialRadioChannel 0
par Scenario.node[8].nic.phy80211p ccaThreshold -65dBm
attr unit dBm
par Scenario.node[8].nic.phy80211p collectCollisionStatistics false
par Scenario.node[8].nic.phy80211p allowTxDuringRx false
scalar Scenario.node[8].nic.phy80211p busyTime 0.033202603978314
par Scenario.node[8].nic.mac1609_4 typename "\"org.car2x.veins.modules.mac.ieee80211p.Mac1609_4\""
par Scenario.node[8].nic.mac1609_4 notAffectedByHostState false
par Scenario.node[8].nic.mac1609_4 headerLength 0bit
attr unit bit
par Scenario.node[8].nic.mac1609_4 address "\"auto\""
par Scenario.node[8].nic.mac1609_4 useServiceChannel false
par Scenario.node[8].nic.mac1609_4 serviceChannel 1
par Scenario.node[8].nic.mac1609_4 bitrate 6000000bps
attr unit bps
par Scenario.node[8].nic.mac1609_4 syncOffset 0.0003s
attr unit s
par Scenario.node[8].nic.mac1609_4 txPower 20mW
attr unit mW
par Scenario.node[8].nic.mac1609_4 queueSize 0
par Scenario.node[8].nic.mac1609_4 dot11RTSThreshold 12000bit
attr unit bit
par Scenario.node[8].nic.mac1609_4 dot11ShortRetryLimit 7
par Scenario.node[8].nic.mac1609_4 dot11LongRetryLimit 4
par Scenario.node[8].nic.mac1609_4 ackLength 112bit
attr unit bit
par Scenario.node[8].nic.mac1609_4 useAcks false
par Scenario.node[8].nic.mac1609_4 frameErrorRate 0
par Scenario.node[8].nic.mac1609_4 ackErrorRate 0
scalar Scenario.node[8].nic.mac1609_4 ReceivedUnicastPackets 0
scalar Scenario.node[8].nic.mac1609_4 ReceivedBroadcasts 17613
scalar Scenario.node[8].nic.mac1609_4 SentPackets 554
scalar Scenario.node[8].nic.mac1609_4 SentAcknowledgements 0
scalar Scenario.node[8].nic.mac1609_4 RetriesExceeded 0
scalar Scenario.node[8].nic.mac1609_4 SNIRLostPackets 0
scalar Scenario.node[8].nic.mac1609_4 RXTXLostPackets 0
scalar Scenario.node[8].nic.mac1609_4 TotalLostPackets 0
scalar Scenario.node[8].nic.mac1609_4 DroppedPacketsInMac 0
scalar Scenario.node[8].nic.mac1609_4 TooLittleTime 0
scalar Scenario.node[8].nic.mac1609_4 TimesIntoBackoff 554
scalar Scenario.node[8].nic.mac1609_4 SlotsBackoff 843
scalar Scenario.node[8].nic.mac1609_4 NumInternalContention 0
scalar Scenario.node[8].nic.mac1609_4 totalBusyTime 1.894402
scalar Scenario.node[8].nic.mac1609_4 retriesExceeded:count 0
attr recordingmode count
attr source org_car2x_veins_modules_mac_sigRetriesExceeded
scalar Scenario.node[8].nic.mac1609_4 sentAcks:count 0
attr recordingmode count
attr source org_car2x_veins_modules_mac_sigSentAck
scalar Scenario.node[8].nic.mac1609_4 sentPackets:count 554
attr recordingmode count
attr source org_car2x_veins_modules_mac_sigSentPacket
scalar Scenario.node[8].nic.mac1609_4 collisions:count 0
attr recordingmode count
attr source org_car2x_veins_modules_mac_sigCollision
scalar Scenario.node[8].nic.mac1609_4 channelBusy:timeavg 0.03425681735987
attr recordingmode timeavg
attr source org_car2x_veins_modules_mac_sigChannelBusy
par Scenario.node[8].nic typename "\"org.car2x.veins.modules.nic.Nic80211p\""
par Scenario.node[8].nic connectionManagerName "\"connectionManager\""
par Scenario.node[8].veinsmobility typename "\"org.car2x.veins.modules.mobility.traci.TraCIMobility\""
par Scenario.node[8].veinsmobility notAffectedByHostState true
par Scenario.node[8].veinsmobility x 0
par Scenario.node[8].veinsmobility y 0
par Scenario.node[8].veinsmobility z 1.895
par Scenario.node[8].veinsmobility xOrientation 1
par Scenario.node[8].veinsmobility yOrientation 0
par Scenario.node[8].veinsmobility zOrientation 0
par Scenario.node[8].veinsmobility hostPositionOffset 0m
attr unit m
par Scenario.node[8].veinsmobility setHostSpeed false
par Scenario.node[8].veinsmobility accidentCount 0
par Scenario.node[8].veinsmobility accidentStart 44.4619s
attr unit s
par Scenario.node[8].veinsmobility accidentDuration "uniform(30s, 60s)"
attr unit s
par Scenario.node[8].veinsmobility accidentInterval "uniform(30s, 60s)"
attr unit s
scalar Scenario.node[8].veinsmobility startTime 8.1
scalar Scenario.node[8].veinsmobility totalTime 55.2
scalar Scenario.node[8].veinsmobility stopTime 63.4
scalar Scenario.node[8].veinsmobility minSpeed 0.25645482385973
scalar Scenario.node[8].veinsmobility maxSpeed 14.640976065842
scalar Scenario.node[8].veinsmobility totalDistance 564.9072033494
scalar Scenario.node[8].veinsmobility totalCO2Emission 201.45208607663
par Scenario.node[8] typename "\"org.car2x.veins.nodes.Car\""
par Scenario.node[8] applType "\"TraCIDemo11p\""
par Scenario.node[8] nicType "\"Nic80211p\""
par Scenario.node[8] veinsmobilityType "\"org.car2x.veins.modules.mobility.traci.TraCIMobility\""
par Scenario.node[24].appl typename "\"org.car2x.veins.modules.application.traci.TraCIDemo11p\""
par Scenario.node[24].appl headerLength 80bit
attr unit bit
par Scenario.node[24].appl sendBeacons true
par Scenario.node[24].appl beaconLengthBits 256bit
attr unit bit
par Scenario.node[24].appl beaconUserPriority 7
par Scenario.node[24].appl beaconInterval 0.1s
attr unit s
par Scenario.node[24].appl dataLengthBits 1024bit
attr unit bit
par Scenario.node[24].appl dataOnSch false
par Scenario.node[24].appl dataUserPriority 7
par Scenario.node[24].appl avoidBeaconSynchronization true
par Scenario.node[24].appl sendWSA false
par Scenario.node[24].appl wsaLengthBits 250bit
attr unit bit
par Scenario.node[24].appl wsaInterval 1s
attr unit s
scalar Scenario.node[24].appl generatedWSMs 1
scalar Scenario.node[24].appl receivedWSMs 34
scalar Scenario.node[24].appl generatedBSMs 394
scalar Scenario.node[24].appl receivedBSMs 15169
scalar Scenario.node[24].appl generatedWSAs 0
scalar Scenario.node[24].appl receivedWSAs 0
par Scenario.node[24].nic.phy80211p typename "\"org.car2x.veins.modules.phy.PhyLayer80211p\""
par Scenario.node[24].nic.phy80211p recordStats false
par Scenario.node[24].nic.phy80211p usePropagationDelay true
par Scenario.node[24].nic.phy80211p noiseFloor -98dBm
attr unit dBm
par Scenario.node[24].nic.phy80211p useNoiseFloor true
par Scenario.node[24].nic.phy80211p antenna "<root>...</root> at content:1"
par Scenario.node[24].nic.phy80211p antennaOffsetX 0m
attr unit m
par Scenario.node[24].nic.phy80211p antennaOffsetY 0m
attr unit m
par Scenario.node[24].nic.phy80211p antennaOffsetZ 1.895m
attr unit m
par Scenario.node[24].nic.phy80211p antennaOffsetYaw 0rad
attr unit rad
par Scenario.node[24].nic.phy80211p analogueModels "<root>...</root> at /home/vagrant/spe-homework-project/Project/simulations//config_1.xml:2"
par Scenario.node[24].nic.phy80211p decider "<root>...</root> at /home/vagrant/spe-homework-project/Project/simulations//config_1.xml:2"
par Scenario.node[24].nic.phy80211p minPowerLevel -110dBm
attr unit dBm
par Scenario.node[24].nic.phy80211p timeRXToTX 0s
attr unit s
par Scenario.node[24].nic.phy80211p timeRXToSleep 0s
attr unit s
par Scenario.node[24].nic.phy80211p timeTXToRX 0s
attr unit s
par Scenario.node[24].nic.phy80211p timeTXToSleep 0s
attr unit s
par Scenario.node[24].nic.phy80211p timeSleepToRX 0s
attr unit s
par Scenario.node[24].nic.phy80211p timeSleepToTX 0s
attr unit s
par Scenario.node[24].nic.phy80211p initialRadioState 0
par Scenario.node[24].nic.phy80211p radioMinAtt 1
par Scenario.node[24].nic.phy80211p radioMaxAtt 0
par Scenario.node[24].nic.phy80211p nbRadioChannels 1
par Scenario.node[24].nic.phy80211p initialRadioChannel 0
par Scenario.node[24].nic.phy80211p ccaThreshold -65dBm
attr unit dBm
par Scenario.node[24].nic.phy80211p collectCollisionStatistics false
par Scenario.node[24].nic.phy80211p allowTxDuringRx false
scalar Scenario.node[24].nic.phy80211p busyTime 0.040240203045699
par Scenario.node[24].nic.mac1609_4 typename "\"org.car2x.veins.modules.mac.ieee80211p.Mac1609_4\""
par Scenario.node[24].nic.mac1609_4 notAffectedByHostState false
par Scenario.node[24].nic.mac1609_4 headerLength 0bit
attr unit bit
par Scenario.node[24].nic.mac1609_4 address "\"auto\""
par Scenario.node[24].nic.mac1609_4 useServiceChannel false
par Scenario.node[24].nic.mac1609_4 serviceChannel 1
par Scenario.node[24].nic.mac1609_4 bitrate 6000000bps
attr unit bps
par Scenario.node[24].nic.mac1609_4 syncOffset 0.0003s
attr unit s
par Scenario.node[24].nic.mac1609_4 txPower 20mW
attr unit mW
par Scenario.node[24].nic.mac1609_4 queueSize 0
par Scenario.node[24].nic.mac1609_4 dot11RTSThreshold 12000bit
attr unit bit
par Scenario.node[24].nic.mac1609_4 dot11ShortRetryLimit 7
par Scenario.node[24].nic.mac1609_4 dot11LongRetryLimit 4
par Scenario.node[24].nic.mac1609_4 ackLength 112bit
attr unit bit
par Scenario.node[24].nic.mac1609_4 useAcks false
par Scenario.node[24].nic.mac1609_4 frameErrorRate 0
par Scenario.node[24].nic.mac1609_4 ackErrorRate 0
scalar Scenario.node[24].nic.mac1609_4 ReceivedUnicastPackets 0
scalar Scenario.node[24].nic.mac1609_4 ReceivedBroadcasts 15203
scalar Scenario.node[24].nic.mac1609_4 SentPackets 395
scalar Scenario.node[24].nic.mac1609_4 SentAcknowledgements 0
scalar Scenario.node[24].nic.mac1609_4 RetriesExceeded 0
scalar Scenario.node[24].nic.mac1609_4 SNIRLostPackets 0
scalar Scenario.node[24].nic.mac1609_4 RXTXLostPackets 0
scalar Scenario.node[24].nic.mac1609_4 TotalLostPackets 0
scalar Scenario.node[24].nic.mac1609_4 DroppedPacketsInMac 0
scalar Scenario.node[24].nic.mac1609_4 TooLittleTime 0
scalar Scenario.node[24].nic.mac1609_4 TimesIntoBackoff 395
scalar Scenario.node[24].nic.mac1609_4 SlotsBackoff 583
scalar Scenario.node[24].nic.mac1609_4 NumInternalContention 0
scalar Scenario.node[24].nic.mac1609_4 totalBusyTime 1.627067
scalar Scenario.node[24].nic.mac1609_4 retriesExceeded:count 0
attr recordingmode count
attr source org_car2x_veins_modules_mac_sigRetriesExceeded
scalar Scenario.node[24].nic.mac1609_4 sentAcks:count 0
attr recordingmode count
attr source org_car2x_veins_modules_mac_sigSentAck
scalar Scenario.node[24].nic.mac1609_4 sentPackets:count 395
attr recordingmode count
attr source org_car2x_veins_modules_mac_sigSentPacket
scalar Scenario.node[24].nic.mac1609_4 collisions:count 0
attr recordingmode count
attr source org_car2x_veins_modules_mac_sigCollision
scalar Scenario.node[24].nic.mac1609_4 channelBusy:timeavg 0.041296116751283
attr recordingmode timeavg
attr source org_car2x_veins_modules_mac_sigChannelBusy
par Scenario.node[24].nic typename "\"org.car2x.veins.modules.nic.Nic80211p\""
par Scenario.node[24].nic connectionManagerName "\"connectionManager\""
par Scenario.node[24].veinsmobility typename "\"org.car2x.veins.modules.mobility.traci.TraCIMobility\""
par Scenario.node[24].veinsmobility notAffectedByHostState true
par Scenario.node[24].veinsmobility x 0
par Scenario.node[24].veinsmobility y 0
par Scenario.node[24].veinsmobility z 1.895
par Scenario.node[24].veinsmobility xOrientation 1
par Scenario.node[24].veinsmobility yOrientation 0
par Scenario.node[24].veinsmobility zOrientation 0
par Scenario.node[24].veinsmobility hostPositionOffset 0m
attr unit m
par Scenario.node[24].veinsmobility setHostSpeed false
par Scenario.node[24].veinsmobility accidentCount 0
par Scenario.node[24].veinsmobility accidentStart 41.642s
attr unit s
par Scenario.node[24].veinsmobility accidentDuration "uniform(30s, 60s)"
attr unit s
par Scenario.node[24].veinsmobility accidentInterval "uniform(30s, 60s)"
attr unit s
scalar Scenario.node[24].veinsmobility startTime 24.1
scalar Scenario.node[24].veinsmobility totalTime 39.3
scalar Scenario.node[24].veinsmobility stopTime 63.5
scalar Scenario.node[24].veinsmobility minSpeed 0.25899773472198
scalar Scenario.node[24].veinsmobility maxSpeed 13.067048627952
scalar Scenario.node[24].veinsmobility totalDistance 419.56234303539
scalar Scenario.node[24].veinsmobility totalCO2Emission 117.96550914512
par Scenario.node[24] typename "\"org.car2x.veins.nodes.Car\""
par Scenario.node[24] applType "\"TraCIDemo11p\""
par Scenario.node[24] nicType "\"Nic80211p\""
par Scenario.node[24] veinsmobilityType "\"org.car2x.veins.modules.mobility.traci.TraCIMobility\""
par Scenario.node[1].appl typename "\"org.car2x.veins.modules.application.traci.TraCIDemo11p\""
par Scenario.node[1].appl headerLength 80bit
attr unit bit
par Scenario.node[1].appl sendBeacons true
par Scenario.node[1].appl beaconLengthBits 256bit
attr unit bit
par Scenario.node[1].appl beaconUserPriority 7
par Scenario.node[1].appl beaconInterval 0.1s
attr unit s
par Scenario.node[1].appl dataLengthBits 1024bit
attr unit bit
par Scenario.node[1].appl dataOnSch false
par Scenario.node[1].appl dataUserPriority 7
par Scenario.node[1].appl avoidBeaconSynchronization true
par Scenario.node[1].appl sendWSA false
par Scenario.node[1].appl wsaLengthBits 250bit
attr unit bit
par Scenario.node[1].appl wsaInterval 1s
attr unit s
scalar Scenario.node[1].appl generatedWSMs 1
scalar Scenario.node[1].appl receivedWSMs 35
scalar Scenario.node[1].appl generatedBSMs 650
scalar Scenario.node[1].appl receivedBSMs 19301
scalar Scenario.node[1].appl generatedWSAs 0
scalar Scenario.node[1].appl receivedWSAs 0
par Scenario.node[1].nic.phy80211p typename "\"org.car2x.veins.modules.phy.PhyLayer80211p\""
par Scenario.node[1].nic.phy80211p recordStats false
par Scenario.node[1].nic.phy80211p usePropagationDelay true
par Scenario.node[1].nic.phy80211p noiseFloor -98dBm
attr unit dBm
par Scenario.node[1].nic.phy80211p useNoiseFloor true
par Scenario.node[1].nic.phy80211p antenna "<root>...</root> at content:1"
par Scenario.node[1].nic.phy80211p antennaOffsetX 0m
attr unit m
par Scenario.node[1].nic.phy80211p antennaOffsetY 0m
attr unit m
par Scenario.node[1].nic.phy80211p antennaOffsetZ 1.895m
attr unit m
par Scenario.node[1].nic.phy80211p antennaOffsetYaw 0rad
attr unit rad
par Scenario.node[1].nic.phy80211p analogueModels "<root>...</root> at /home/vagrant/spe-homework-project/Project/simulations//config_1.xml:2"
par Scenario.node[1].nic.phy80211p decider "<root>...</root> at /home/vagrant/spe-homework-project/Project/simulations//config_1.xml:2"
par Scenario.node[1].nic.phy80211p minPowerLevel -110dBm
attr unit dBm
par Scenario.node[1].nic.phy80211p timeRXToTX 0s
attr unit s
par Scenario.node[1].nic.phy80211p timeRXToSleep 0s
attr unit s
par Scenario.node[1].nic.phy80211p timeTXToRX 0s
attr unit s
par Scenario.node[1].nic.phy80211p timeTXToSleep 0s
attr unit s
par Scenario.node[1].nic.phy80211p timeSleepToRX 0s
attr unit s
par Scenario.node[1].nic.phy80211p timeSleepToTX 0s
attr unit s
par Scenario.node[1].nic.phy80211p initialRadioState 0
par Scenario.node[1].nic.phy80211p radioMinAtt 1
par Scenario.node[1].nic.phy80211p radioMaxAtt 0
par Scenario.node[1].nic.phy80211p nbRadioChannels 1
par Scenario.node[1].nic.phy80211p initialRadioChannel 0
par Scenario.node[1].nic.phy80211p ccaThreshold -65dBm
attr unit dBm
par Scenario.node[1].nic.phy80211p collectCollisionStatistics false
par Scenario.node[1].nic.phy80211p allowTxDuringRx false
scalar Scenario.node[1].nic.phy80211p busyTime 0.031006523076937
par Scenario.node[1].nic.mac1609_4 typename "\"org.car2x.veins.modules.mac.ieee80211p.Mac1609_4\""
par Scenario.node[1].nic.mac1609_4 notAffectedByHostState false
par Scenario.node[1].nic.mac1609_4 headerLength 0bit
attr unit bit
par Scenario.node[1].nic.mac1609_4 address "\"auto\""
par Scenario.node[1].nic.mac1609_4 useServiceChannel false
par Scenario.node[1].nic.mac1609_4 serviceChannel 1
par Scenario.node[1].nic.mac1609_4 bitrate 6000000bps
attr unit bps
par Scenario.node[1].nic.mac1609_4 syncOffset 0.0003s
attr unit s
par Scenario.node[1].nic.mac1609_4 txPower 20mW
attr unit mW
par Scenario.node[1].nic.mac1609_4 queueSize 0
par Scenario.node[1].nic.mac1609_4 dot11RTSThreshold 12000bit
attr unit bit
par Scenario.node[1].nic.mac1609_4 dot11ShortRetryLimit 7
par Scenario.node[1].nic.mac1609_4 dot11LongRetryLimit 4
par Scenario.node[1].nic.mac1609_4 ackLength 112bit
attr unit bit
par Scenario.node[1].nic.mac1609_4 useAcks false
par Scenario.node[1].nic.mac1609_4 frameErrorRate 0
par Scenario.node[1].nic.mac1609_4 ackErrorRate 0
scalar Scenario.node[1].nic.mac1609_4 ReceivedUnicastPackets 0
scalar Scenario.node[1].nic.mac1609_4 ReceivedBroadcasts 19336
scalar Scenario.node[1].nic.mac1609_4 SentPackets 651
scalar Scenario.node[1].nic.mac1609_4 SentAcknowledgements 0
scalar Scenario.node[1].nic.mac1609_4 RetriesExceeded 0
scalar Scenario.node[1].nic.mac1609_4 SNIRLostPackets 0
scalar Scenario.node[1].nic.mac1609_4 RXTXLostPackets 0
scalar Scenario.node[1].nic.mac1609_4 TotalLostPackets 0
scalar Scenario.node[1].nic.mac1609_4 DroppedPacketsInMac 0
scalar Scenario.node[1].nic.mac1609_4 TooLittleTime 0
scalar Scenario.node[1].nic.mac1609_4 TimesIntoBackoff 652
scalar Scenario.node[1].nic.mac1609_4 SlotsBackoff 991
scalar Scenario.node[1].nic.mac1609_4 NumInternalContention 0
scalar Scenario.node[1].nic.mac1609_4 totalBusyTime 2.083907
scalar Scenario.node[1].nic.mac1609_4 retriesExceeded:count 0
attr recordingmode count
attr source org_car2x_veins_modules_mac_sigRetriesExceeded
scalar Scenario.node[1].nic.mac1609_4 sentAcks:count 0
attr recordingmode count
attr source org_car2x_veins_modules_mac_sigSentAck
scalar Scenario.node[1].nic.mac1609_4 sentPackets:count 651
attr recordingmode count
attr source org_car2x_veins_modules_mac_sigSentPacket
scalar Scenario.node[1].nic.mac1609_4 collisions:count 0
attr recordingmode count
attr source org_car2x_veins_modules_mac_sigCollision
scalar Scenario.node[1].nic.mac1609_4 channelBusy:timeavg 0.032060107692321
attr recordingmode timeavg
attr source org_car2x_veins_modules_mac_sigChannelBusy
par Scenario.node[1].nic typename "\"org.car2x.veins.modules.nic.Nic80211p\""
par Scenario.node[1].nic connectionManagerName "\"connectionManager\""
par Scenario.node[1].veinsmobility typename "\"org.car2x.veins.modules.mobility.traci.TraCIMobility\""
par Scenario.node[1].veinsmobility notAffectedByHostState true
par Scenario.node[1].veinsmobility x 0
par Scenario.node[1].veinsmobility y 0
par Scenario.node[1].veinsmobility z 1.895
par Scenario.node[1].veinsmobility xOrientation 1
par Scenario.node[1].veinsmobility yOrientation 0
par Scenario.node[1].veinsmobility zOrientation 0
par Scenario.node[1].veinsmobility hostPositionOffset 0m
attr unit m
par Scenario.node[1].veinsmobility setHostSpeed false
par Scenario.node[1].veinsmobility accidentCount 0
par Scenario.node[1].veinsmobility accidentStart 31.7014s
attr unit s
par Scenario.node[1].veinsmobility accidentDuration "uniform(30s, 60s)"
attr unit s
par Scenario.node[1].veinsmobility accidentInterval "uniform(30s, 60s)"
attr unit s
scalar Scenario.node[1].veinsmobility startTime 1.1
scalar Scenario.node[1].veinsmobility totalTime 64.9
scalar Scenario.node[1].veinsmobility stopTime 66.1
scalar Scenario.node[1].veinsmobility minSpeed 0
scalar Scenario.node[1].veinsmobility maxSpeed 14.560843830217
scalar Scenario.node[1].veinsmobility totalDistance 425.49164391216
scalar Scenario.node[1].veinsmobility totalCO2Emission 167.38685731969
par Scenario.node[1] typename "\"org.car2x.veins.nodes.Car\""
par Scenario.node[1] applType "\"TraCIDemo11p\""
par Scenario.node[1] nicType "\"Nic80211p\""
par Scenario.node[1] veinsmobilityType "\"org.car2x.veins.modules.mobility.traci.TraCIMobility\""
par Scenario.node[12].appl typename "\"org.car2x.veins.modules.application.traci.TraCIDemo11p\""
par Scenario.node[12].appl headerLength 80bit
attr unit bit
par Scenario.node[12].appl sendBeacons true
par Scenario.node[12].appl beaconLengthBits 256bit
attr unit bit
par Scenario.node[12].appl beaconUserPriority 7
par Scenario.node[12].appl beaconInterval 0.1s
attr unit s
par Scenario.node[12].appl dataLengthBits 1024bit
attr unit bit
par Scenario.node[12].appl dataOnSch false
par Scenario.node[12].appl dataUserPriority 7
par Scenario.node[12].appl avoidBeaconSynchronization true
par Scenario.node[12].appl sendWSA false
par Scenario.node[12].appl wsaLengthBits 250bit
attr unit bit
par Scenario.node[12].appl wsaInterval 1s
attr unit s
scalar Scenario.node[12].appl generatedWSMs 1
scalar Scenario.node[12].appl receivedWSMs 35
scalar Scenario.node[12].appl generatedBSMs 548
scalar Scenario.node[12].appl receivedBSMs 19081
scalar Scenario.node[12].appl generatedWSAs 0
scalar Scenario.node[12].appl receivedWSAs 0
par Scenario.node[12].nic.phy80211p typename "\"org.car2x.veins.modules.phy.PhyLayer80211p\""
par Scenario.node[12].nic.phy80211p recordStats false
par Scenario.node[12].nic.phy80211p usePropagationDelay true
par Scenario.node[12].nic.phy80211p noiseFloor -98dBm
attr unit dBm
par Scenario.node[12].nic.phy80211p useNoiseFloor true
par Scenario.node[12].nic.phy80211p antenna "<root>...</root> at content:1"
par Scenario.node[12].nic.phy80211p antennaOffsetX 0m
attr unit m
par Scenario.node[12].nic.phy80211p antennaOffsetY 0m
attr unit m
par Scenario.node[12].nic.phy80211p antennaOffsetZ 1.895m
attr unit m
par Scenario.node[12].nic.phy80211p antennaOffsetYaw 0rad
attr unit rad
par Scenario.node[12].nic.phy80211p analogueModels "<root>...</root> at /home/vagrant/spe-homework-project/Project/simulations//config_1.xml:2"
par Scenario.node[12].nic.phy80211p decider "<root>...</root> at /home/vagrant/spe-homework-project/Project/simulations//config_1.xml:2"
par Scenario.node[12].nic.phy80211p minPowerLevel -110dBm
attr unit dBm
par Scenario.node[12].nic.phy80211p timeRXToTX 0s
attr unit s
par Scenario.node[12].nic.phy80211p timeRXToSleep 0s
attr unit s
par Scenario.node[12].nic.phy80211p timeTXToRX 0s
attr unit s
par Scenario.node[12].nic.phy80211p timeTXToSleep 0s
attr unit s
par Scenario.node[12].nic.phy80211p timeSleepToRX 0s
attr unit s
par Scenario.node[12].nic.phy80211p timeSleepToTX 0s
attr unit s
par Scenario.node[12].nic.phy80211p initialRadioState 0
par Scenario.node[12].nic.phy80211p radioMinAtt 1
par Scenario.node[12].nic.phy80211p radioMaxAtt 0
par Scenario.node[12].nic.phy80211p nbRadioChannels 1
par Scenario.node[12].nic.phy80211p initialRadioChannel 0
par Scenario.node[12].nic.phy80211p ccaThreshold -65dBm
attr unit dBm
par Scenario.node[12].nic.phy80211p collectCollisionStatistics false
par Scenario.node[12].nic.phy80211p allowTxDuringRx false
scalar Scenario.node[12].nic.phy80211p busyTime 0.03636029197082
par Scenario.node[12].nic.mac1609_4 typename "\"org.car2x.veins.modules.mac.ieee80211p.Mac1609_4\""
par Scenario.node[12].nic.mac1609_4 notAffectedByHostState false
par Scenario.node[12].nic.mac1609_4 headerLength 0bit
attr unit bit
par Scenario.node[12].nic.mac1609_4 address "\"auto\""
par Scenario.node[12].nic.mac1609_4 useServiceChannel false
par Scenario.node[12].nic.mac1609_4 serviceChannel 1
par Scenario.node[12].nic.mac1609_4 bitrate 6000000bps
attr unit bps
par Scenario.node[12].nic.mac1609_4 syncOffset 0.0003s
attr unit s
par Scenario.node[12].nic.mac1609_4 txPower 20mW
attr unit mW
par Scenario.node[12].nic.mac1609_4 queueSize 0
par Scenario.node[12].nic.mac1609_4 dot11RTSThreshold 12000bit
attr unit bit
par Scenario.node[12].nic.mac1609_4 dot11ShortRetryLimit 7
par Scenario.node[12].nic.mac1609_4 dot11LongRetryLimit 4
par Scenario.node[12].nic.mac1609_4 ackLength 112bit
attr unit bit
par Scenario.node[12].nic.mac1609_4 useAcks false
par Scenario.node[12].nic.mac1609_4 frameErrorRate 0
par Scenario.node[12].nic.mac1609_4 ackErrorRate 0
scalar Scenario.node[12].nic.mac1609_4 ReceivedUnicastPackets 0
scalar Scenario.node[12].nic.mac1609_4 ReceivedBroadcasts 19116
scalar Scenario.node[12].nic.mac1609_4 SentPackets 549
scalar Scenario.node[12].nic.mac1609_4 SentAcknowledgements 0
scalar Scenario.node[12].nic.mac1609_4 RetriesExceeded 0
scalar Scenario.node[12].nic.mac1609_4 SNIRLostPackets 0
scalar Scenario.node[12].nic.mac1609_4 RXTXLostPackets 0
scalar Scenario.node[12].nic.mac1609_4 TotalLostPackets 0
scalar Scenario.node[12].nic.mac1609_4 DroppedPacketsInMac 0
scalar Scenario.node[12].nic.mac1609_4 TooLittleTime 0
scalar Scenario.node[12].nic.mac1609_4 TimesIntoBackoff 551
scalar Scenario.node[12].nic.mac1609_4 SlotsBackoff 833
scalar Scenario.node[12].nic.mac1609_4 NumInternalContention 0
scalar Scenario.node[12].nic.mac1609_4 totalBusyTime 2.050317
scalar Scenario.node[12].nic.mac1609_4 retriesExceeded:count 0
attr recordingmode count
attr source org_car2x_veins_modules_mac_sigRetriesExceeded
scalar Scenario.node[12].nic.mac1609_4 sentAcks:count 0
attr recordingmode count
attr source org_car2x_veins_modules_mac_sigSentAck
scalar Scenario.node[12].nic.mac1609_4 sentPackets:count 549
attr recordingmode count
attr source org_car2x_veins_modules_mac_sigSentPacket
scalar Scenario.node[12].nic.mac1609_4 collisions:count 0
attr recordingmode count
attr source org_car2x_veins_modules_mac_sigCollision
scalar Scenario.node[12].nic.mac1609_4 channelBusy:timeavg 0.037414543795636
attr recordingmode timeavg
attr source org_car2x_veins_modules_mac_sigChannelBusy
par Scenario.node[12].nic typename "\"org.car2x.veins.modules.nic.Nic80211p\""
par Scenario.node[12].nic connectionManagerName "\"connectionManager\""
[...]
par Scenario.node[97].nic.phy80211p minPowerLevel -110dBm
attr unit dBm
par Scenario.node[97].nic.phy80211p timeRXToTX 0s
attr unit s
par Scenario.node[97].nic.phy80211p timeRXToSleep 0s
attr unit s
par Scenario.node[97].nic.phy80211p timeTXToRX 0s
attr unit s
par Scenario.node[97].nic.phy80211p timeTXToSleep 0s
attr unit s
par Scenario.node[97].nic.phy80211p timeSleepToRX 0s
attr unit s
par Scenario.node[97].nic.phy80211p timeSleepToTX 0s
attr unit s
par Scenario.node[97].nic.phy80211p initialRadioState 0
par Scenario.node[97].nic.phy80211p radioMinAtt 1
par Scenario.node[97].nic.phy80211p radioMaxAtt 0
par Scenario.node[97].nic.phy80211p nbRadioChannels 1
par Scenario.node[97].nic.phy80211p initialRadioChannel 0
par Scenario.node[97].nic.phy80211p ccaThreshold -65dBm
attr unit dBm
par Scenario.node[97].nic.phy80211p collectCollisionStatistics false
par Scenario.node[97].nic.phy80211p allowTxDuringRx false
scalar Scenario.node[97].nic.phy80211p busyTime 0.074776000000001
par Scenario.node[97].nic.mac1609_4 typename "\"org.car2x.veins.modules.mac.ieee80211p.Mac1609_4\""
par Scenario.node[97].nic.mac1609_4 notAffectedByHostState false
par Scenario.node[97].nic.mac1609_4 headerLength 0bit
attr unit bit
par Scenario.node[97].nic.mac1609_4 address "\"auto\""
par Scenario.node[97].nic.mac1609_4 useServiceChannel false
par Scenario.node[97].nic.mac1609_4 serviceChannel 1
par Scenario.node[97].nic.mac1609_4 bitrate 6000000bps
attr unit bps
par Scenario.node[97].nic.mac1609_4 syncOffset 0.0003s
attr unit s
par Scenario.node[97].nic.mac1609_4 txPower 20mW
attr unit mW
par Scenario.node[97].nic.mac1609_4 queueSize 0
par Scenario.node[97].nic.mac1609_4 dot11RTSThreshold 12000bit
attr unit bit
par Scenario.node[97].nic.mac1609_4 dot11ShortRetryLimit 7
par Scenario.node[97].nic.mac1609_4 dot11LongRetryLimit 4
par Scenario.node[97].nic.mac1609_4 ackLength 112bit
attr unit bit
par Scenario.node[97].nic.mac1609_4 useAcks false
par Scenario.node[97].nic.mac1609_4 frameErrorRate 0
par Scenario.node[97].nic.mac1609_4 ackErrorRate 0
scalar Scenario.node[97].nic.mac1609_4 ReceivedUnicastPackets 0
scalar Scenario.node[97].nic.mac1609_4 ReceivedBroadcasts 689
scalar Scenario.node[97].nic.mac1609_4 SentPackets 10
scalar Scenario.node[97].nic.mac1609_4 SentAcknowledgements 0
scalar Scenario.node[97].nic.mac1609_4 RetriesExceeded 0
scalar Scenario.node[97].nic.mac1609_4 SNIRLostPackets 30
scalar Scenario.node[97].nic.mac1609_4 RXTXLostPackets 0
scalar Scenario.node[97].nic.mac1609_4 TotalLostPackets 30
scalar Scenario.node[97].nic.mac1609_4 DroppedPacketsInMac 0
scalar Scenario.node[97].nic.mac1609_4 TooLittleTime 0
scalar Scenario.node[97].nic.mac1609_4 TimesIntoBackoff 10
scalar Scenario.node[97].nic.mac1609_4 SlotsBackoff 14
scalar Scenario.node[97].nic.mac1609_4 NumInternalContention 0
scalar Scenario.node[97].nic.mac1609_4 totalBusyTime 0.073746
scalar Scenario.node[97].nic.mac1609_4 retriesExceeded:count 0
attr recordingmode count
attr source org_car2x_veins_modules_mac_sigRetriesExceeded
scalar Scenario.node[97].nic.mac1609_4 sentAcks:count 0
attr recordingmode count
attr source org_car2x_veins_modules_mac_sigSentAck
scalar Scenario.node[97].nic.mac1609_4 sentPackets:count 10
attr recordingmode count
attr source org_car2x_veins_modules_mac_sigSentPacket
scalar Scenario.node[97].nic.mac1609_4 collisions:count 0
attr recordingmode count
attr source org_car2x_veins_modules_mac_sigCollision
scalar Scenario.node[97].nic.mac1609_4 channelBusy:timeavg 0.073746000000001
attr recordingmode timeavg
attr source org_car2x_veins_modules_mac_sigChannelBusy
par Scenario.node[97].nic typename "\"org.car2x.veins.modules.nic.Nic80211p\""
par Scenario.node[97].nic connectionManagerName "\"connectionManager\""
par Scenario.node[97].veinsmobility typename "\"org.car2x.veins.modules.mobility.traci.TraCIMobility\""
par Scenario.node[97].veinsmobility notAffectedByHostState true
par Scenario.node[97].veinsmobility x 0
par Scenario.node[97].veinsmobility y 0
par Scenario.node[97].veinsmobility z 1.895
par Scenario.node[97].veinsmobility xOrientation 1
par Scenario.node[97].veinsmobility yOrientation 0
par Scenario.node[97].veinsmobility zOrientation 0
par Scenario.node[97].veinsmobility hostPositionOffset 0m
attr unit m
par Scenario.node[97].veinsmobility setHostSpeed false
par Scenario.node[97].veinsmobility accidentCount 0
par Scenario.node[97].veinsmobility accidentStart 48.2937s
attr unit s
par Scenario.node[97].veinsmobility accidentDuration "uniform(30s, 60s)"
attr unit s
par Scenario.node[97].veinsmobility accidentInterval "uniform(30s, 60s)"
attr unit s
scalar Scenario.node[97].veinsmobility startTime 99
scalar Scenario.node[97].veinsmobility totalTime 1
scalar Scenario.node[97].veinsmobility stopTime 100
scalar Scenario.node[97].veinsmobility minSpeed 0.25224800445791
scalar Scenario.node[97].veinsmobility maxSpeed 2.246833702959
scalar Scenario.node[97].veinsmobility totalDistance 1.2793329090416
scalar Scenario.node[97].veinsmobility totalCO2Emission 1.7146789323171
par Scenario.node[97] typename "\"org.car2x.veins.nodes.Car\""
par Scenario.node[97] applType "\"TraCIDemo11p\""
par Scenario.node[97] nicType "\"Nic80211p\""
par Scenario.node[97] veinsmobilityType "\"org.car2x.veins.modules.mobility.traci.TraCIMobility\""
par Scenario.node[98].appl typename "\"org.car2x.veins.modules.application.traci.TraCIDemo11p\""
par Scenario.node[98].appl headerLength 80bit
attr unit bit
par Scenario.node[98].appl sendBeacons true
par Scenario.node[98].appl beaconLengthBits 256bit
attr unit bit
par Scenario.node[98].appl beaconUserPriority 7
par Scenario.node[98].appl beaconInterval 0.1s
attr unit s
par Scenario.node[98].appl dataLengthBits 1024bit
attr unit bit
par Scenario.node[98].appl dataOnSch false
par Scenario.node[98].appl dataUserPriority 7
par Scenario.node[98].appl avoidBeaconSynchronization true
par Scenario.node[98].appl sendWSA false
par Scenario.node[98].appl wsaLengthBits 250bit
attr unit bit
par Scenario.node[98].appl wsaInterval 1s
attr unit s
scalar Scenario.node[98].appl generatedWSMs 0
scalar Scenario.node[98].appl receivedWSMs 0
scalar Scenario.node[98].appl generatedBSMs 9
scalar Scenario.node[98].appl receivedBSMs 620
scalar Scenario.node[98].appl generatedWSAs 0
scalar Scenario.node[98].appl receivedWSAs 0
par Scenario.node[98].nic.phy80211p typename "\"org.car2x.veins.modules.phy.PhyLayer80211p\""
par Scenario.node[98].nic.phy80211p recordStats false
par Scenario.node[98].nic.phy80211p usePropagationDelay true
par Scenario.node[98].nic.phy80211p noiseFloor -98dBm
attr unit dBm
par Scenario.node[98].nic.phy80211p useNoiseFloor true
par Scenario.node[98].nic.phy80211p antenna "<root>...</root> at content:1"
par Scenario.node[98].nic.phy80211p antennaOffsetX 0m
attr unit m
par Scenario.node[98].nic.phy80211p antennaOffsetY 0m
attr unit m
par Scenario.node[98].nic.phy80211p antennaOffsetZ 1.895m
attr unit m
par Scenario.node[98].nic.phy80211p antennaOffsetYaw 0rad
attr unit rad
par Scenario.node[98].nic.phy80211p analogueModels "<root>...</root> at /home/vagrant/spe-homework-project/Project/simulations//config_1.xml:2"
par Scenario.node[98].nic.phy80211p decider "<root>...</root> at /home/vagrant/spe-homework-project/Project/simulations//config_1.xml:2"
par Scenario.node[98].nic.phy80211p minPowerLevel -110dBm
attr unit dBm
par Scenario.node[98].nic.phy80211p timeRXToTX 0s
attr unit s
par Scenario.node[98].nic.phy80211p timeRXToSleep 0s
attr unit s
par Scenario.node[98].nic.phy80211p timeTXToRX 0s
attr unit s
par Scenario.node[98].nic.phy80211p timeTXToSleep 0s
attr unit s
par Scenario.node[98].nic.phy80211p timeSleepToRX 0s
attr unit s
par Scenario.node[98].nic.phy80211p timeSleepToTX 0s
attr unit s
par Scenario.node[98].nic.phy80211p initialRadioState 0
par Scenario.node[98].nic.phy80211p radioMinAtt 1
par Scenario.node[98].nic.phy80211p radioMaxAtt 0
par Scenario.node[98].nic.phy80211p nbRadioChannels 1
par Scenario.node[98].nic.phy80211p initialRadioChannel 0
par Scenario.node[98].nic.phy80211p ccaThreshold -65dBm
attr unit dBm
par Scenario.node[98].nic.phy80211p collectCollisionStatistics false
par Scenario.node[98].nic.phy80211p allowTxDuringRx false
scalar Scenario.node[98].nic.phy80211p busyTime 0.074764444444445
par Scenario.node[98].nic.mac1609_4 typename "\"org.car2x.veins.modules.mac.ieee80211p.Mac1609_4\""
par Scenario.node[98].nic.mac1609_4 notAffectedByHostState false
par Scenario.node[98].nic.mac1609_4 headerLength 0bit
attr unit bit
par Scenario.node[98].nic.mac1609_4 address "\"auto\""
par Scenario.node[98].nic.mac1609_4 useServiceChannel false
par Scenario.node[98].nic.mac1609_4 serviceChannel 1
par Scenario.node[98].nic.mac1609_4 bitrate 6000000bps
attr unit bps
par Scenario.node[98].nic.mac1609_4 syncOffset 0.0003s
attr unit s
par Scenario.node[98].nic.mac1609_4 txPower 20mW
attr unit mW
par Scenario.node[98].nic.mac1609_4 queueSize 0
par Scenario.node[98].nic.mac1609_4 dot11RTSThreshold 12000bit
attr unit bit
par Scenario.node[98].nic.mac1609_4 dot11ShortRetryLimit 7
par Scenario.node[98].nic.mac1609_4 dot11LongRetryLimit 4
par Scenario.node[98].nic.mac1609_4 ackLength 112bit
attr unit bit
par Scenario.node[98].nic.mac1609_4 useAcks false
par Scenario.node[98].nic.mac1609_4 frameErrorRate 0
par Scenario.node[98].nic.mac1609_4 ackErrorRate 0
scalar Scenario.node[98].nic.mac1609_4 ReceivedUnicastPackets 0
scalar Scenario.node[98].nic.mac1609_4 ReceivedBroadcasts 620
scalar Scenario.node[98].nic.mac1609_4 SentPackets 9
scalar Scenario.node[98].nic.mac1609_4 SentAcknowledgements 0
scalar Scenario.node[98].nic.mac1609_4 RetriesExceeded 0
scalar Scenario.node[98].nic.mac1609_4 SNIRLostPackets 27
scalar Scenario.node[98].nic.mac1609_4 RXTXLostPackets 0
scalar Scenario.node[98].nic.mac1609_4 TotalLostPackets 27
scalar Scenario.node[98].nic.mac1609_4 DroppedPacketsInMac 0
scalar Scenario.node[98].nic.mac1609_4 TooLittleTime 0
scalar Scenario.node[98].nic.mac1609_4 TimesIntoBackoff 9
scalar Scenario.node[98].nic.mac1609_4 SlotsBackoff 13
scalar Scenario.node[98].nic.mac1609_4 NumInternalContention 0
scalar Scenario.node[98].nic.mac1609_4 totalBusyTime 0.066361
scalar Scenario.node[98].nic.mac1609_4 retriesExceeded:count 0
attr recordingmode count
attr source org_car2x_veins_modules_mac_sigRetriesExceeded
scalar Scenario.node[98].nic.mac1609_4 sentAcks:count 0
attr recordingmode count
attr source org_car2x_veins_modules_mac_sigSentAck
scalar Scenario.node[98].nic.mac1609_4 sentPackets:count 9
attr recordingmode count
attr source org_car2x_veins_modules_mac_sigSentPacket
scalar Scenario.node[98].nic.mac1609_4 collisions:count 0
attr recordingmode count
attr source org_car2x_veins_modules_mac_sigCollision
scalar Scenario.node[98].nic.mac1609_4 channelBusy:timeavg 0.073734444444445
attr recordingmode timeavg
attr source org_car2x_veins_modules_mac_sigChannelBusy
par Scenario.node[98].nic typename "\"org.car2x.veins.modules.nic.Nic80211p\""
par Scenario.node[98].nic connectionManagerName "\"connectionManager\""
par Scenario.node[98].veinsmobility typename "\"org.car2x.veins.modules.mobility.traci.TraCIMobility\""
par Scenario.node[98].veinsmobility notAffectedByHostState true
par Scenario.node[98].veinsmobility x 0
par Scenario.node[98].veinsmobility y 0
par Scenario.node[98].veinsmobility z 1.895
par Scenario.node[98].veinsmobility xOrientation 1
par Scenario.node[98].veinsmobility yOrientation 0
par Scenario.node[98].veinsmobility zOrientation 0
par Scenario.node[98].veinsmobility hostPositionOffset 0m
attr unit m
par Scenario.node[98].veinsmobility setHostSpeed false
par Scenario.node[98].veinsmobility accidentCount 0
par Scenario.node[98].veinsmobility accidentStart 54.9443s
attr unit s
par Scenario.node[98].veinsmobility accidentDuration "uniform(30s, 60s)"
attr unit s
par Scenario.node[98].veinsmobility accidentInterval "uniform(30s, 60s)"
attr unit s
scalar Scenario.node[98].veinsmobility startTime 99.1
scalar Scenario.node[98].veinsmobility totalTime 0.9
scalar Scenario.node[98].veinsmobility stopTime 100
scalar Scenario.node[98].veinsmobility minSpeed 0.25953835705342
scalar Scenario.node[98].veinsmobility maxSpeed 2.1280378276167
scalar Scenario.node[98].veinsmobility totalDistance 1.0983267074587
scalar Scenario.node[98].veinsmobility totalCO2Emission 1.5307169515581
par Scenario.node[98] typename "\"org.car2x.veins.nodes.Car\""
par Scenario.node[98] applType "\"TraCIDemo11p\""
par Scenario.node[98] nicType "\"Nic80211p\""
par Scenario.node[98] veinsmobilityType "\"org.car2x.veins.modules.mobility.traci.TraCIMobility\""
par Scenario.node[99].appl typename "\"org.car2x.veins.modules.application.traci.TraCIDemo11p\""
par Scenario.node[99].appl headerLength 80bit
attr unit bit
par Scenario.node[99].appl sendBeacons true
par Scenario.node[99].appl beaconLengthBits 256bit
attr unit bit
par Scenario.node[99].appl beaconUserPriority 7
par Scenario.node[99].appl beaconInterval 0.1s
attr unit s
par Scenario.node[99].appl dataLengthBits 1024bit
attr unit bit
par Scenario.node[99].appl dataOnSch false
par Scenario.node[99].appl dataUserPriority 7
par Scenario.node[99].appl avoidBeaconSynchronization true
par Scenario.node[99].appl sendWSA false
par Scenario.node[99].appl wsaLengthBits 250bit
attr unit bit
par Scenario.node[99].appl wsaInterval 1s
attr unit s
scalar Scenario.node[99].appl generatedWSMs 0
scalar Scenario.node[99].appl receivedWSMs 0
scalar Scenario.node[99].appl generatedBSMs 6
scalar Scenario.node[99].appl receivedBSMs 420
scalar Scenario.node[99].appl generatedWSAs 0
scalar Scenario.node[99].appl receivedWSAs 0
par Scenario.node[99].nic.phy80211p typename "\"org.car2x.veins.modules.phy.PhyLayer80211p\""
par Scenario.node[99].nic.phy80211p recordStats false
par Scenario.node[99].nic.phy80211p usePropagationDelay true
par Scenario.node[99].nic.phy80211p noiseFloor -98dBm
attr unit dBm
par Scenario.node[99].nic.phy80211p useNoiseFloor true
par Scenario.node[99].nic.phy80211p antenna "<root>...</root> at content:1"
par Scenario.node[99].nic.phy80211p antennaOffsetX 0m
attr unit m
par Scenario.node[99].nic.phy80211p antennaOffsetY 0m
attr unit m
par Scenario.node[99].nic.phy80211p antennaOffsetZ 1.895m
attr unit m
par Scenario.node[99].nic.phy80211p antennaOffsetYaw 0rad
attr unit rad
par Scenario.node[99].nic.phy80211p analogueModels "<root>...</root> at /home/vagrant/spe-homework-project/Project/simulations//config_1.xml:2"
par Scenario.node[99].nic.phy80211p decider "<root>...</root> at /home/vagrant/spe-homework-project/Project/simulations//config_1.xml:2"
par Scenario.node[99].nic.phy80211p minPowerLevel -110dBm
attr unit dBm
par Scenario.node[99].nic.phy80211p timeRXToTX 0s
attr unit s
par Scenario.node[99].nic.phy80211p timeRXToSleep 0s
attr unit s
par Scenario.node[99].nic.phy80211p timeTXToRX 0s
attr unit s
par Scenario.node[99].nic.phy80211p timeTXToSleep 0s
attr unit s
par Scenario.node[99].nic.phy80211p timeSleepToRX 0s
attr unit s
par Scenario.node[99].nic.phy80211p timeSleepToTX 0s
attr unit s
par Scenario.node[99].nic.phy80211p initialRadioState 0
par Scenario.node[99].nic.phy80211p radioMinAtt 1
par Scenario.node[99].nic.phy80211p radioMaxAtt 0
par Scenario.node[99].nic.phy80211p nbRadioChannels 1
par Scenario.node[99].nic.phy80211p initialRadioChannel 0
par Scenario.node[99].nic.phy80211p ccaThreshold -65dBm
attr unit dBm
par Scenario.node[99].nic.phy80211p collectCollisionStatistics false
par Scenario.node[99].nic.phy80211p allowTxDuringRx false
scalar Scenario.node[99].nic.phy80211p busyTime 0.07488
par Scenario.node[99].nic.mac1609_4 typename "\"org.car2x.veins.modules.mac.ieee80211p.Mac1609_4\""
par Scenario.node[99].nic.mac1609_4 notAffectedByHostState false
par Scenario.node[99].nic.mac1609_4 headerLength 0bit
attr unit bit
par Scenario.node[99].nic.mac1609_4 address "\"auto\""
par Scenario.node[99].nic.mac1609_4 useServiceChannel false
par Scenario.node[99].nic.mac1609_4 serviceChannel 1
par Scenario.node[99].nic.mac1609_4 bitrate 6000000bps
attr unit bps
par Scenario.node[99].nic.mac1609_4 syncOffset 0.0003s
attr unit s
par Scenario.node[99].nic.mac1609_4 txPower 20mW
attr unit mW
par Scenario.node[99].nic.mac1609_4 queueSize 0
par Scenario.node[99].nic.mac1609_4 dot11RTSThreshold 12000bit
attr unit bit
par Scenario.node[99].nic.mac1609_4 dot11ShortRetryLimit 7
par Scenario.node[99].nic.mac1609_4 dot11LongRetryLimit 4
par Scenario.node[99].nic.mac1609_4 ackLength 112bit
attr unit bit
par Scenario.node[99].nic.mac1609_4 useAcks false
par Scenario.node[99].nic.mac1609_4 frameErrorRate 0
par Scenario.node[99].nic.mac1609_4 ackErrorRate 0
scalar Scenario.node[99].nic.mac1609_4 ReceivedUnicastPackets 0
scalar Scenario.node[99].nic.mac1609_4 ReceivedBroadcasts 420
scalar Scenario.node[99].nic.mac1609_4 SentPackets 6
scalar Scenario.node[99].nic.mac1609_4 SentAcknowledgements 0
scalar Scenario.node[99].nic.mac1609_4 RetriesExceeded 0
scalar Scenario.node[99].nic.mac1609_4 SNIRLostPackets 12
scalar Scenario.node[99].nic.mac1609_4 RXTXLostPackets 0
scalar Scenario.node[99].nic.mac1609_4 TotalLostPackets 12
scalar Scenario.node[99].nic.mac1609_4 DroppedPacketsInMac 0
scalar Scenario.node[99].nic.mac1609_4 TooLittleTime 0
scalar Scenario.node[99].nic.mac1609_4 TimesIntoBackoff 6
scalar Scenario.node[99].nic.mac1609_4 SlotsBackoff 9
scalar Scenario.node[99].nic.mac1609_4 NumInternalContention 0
scalar Scenario.node[99].nic.mac1609_4 totalBusyTime 0.04431
scalar Scenario.node[99].nic.mac1609_4 retriesExceeded:count 0
attr recordingmode count
attr source org_car2x_veins_modules_mac_sigRetriesExceeded
scalar Scenario.node[99].nic.mac1609_4 sentAcks:count 0
attr recordingmode count
attr source org_car2x_veins_modules_mac_sigSentAck
scalar Scenario.node[99].nic.mac1609_4 sentPackets:count 6
attr recordingmode count
attr source org_car2x_veins_modules_mac_sigSentPacket
scalar Scenario.node[99].nic.mac1609_4 collisions:count 0
attr recordingmode count
attr source org_car2x_veins_modules_mac_sigCollision
scalar Scenario.node[99].nic.mac1609_4 channelBusy:timeavg 0.07385
attr recordingmode timeavg
attr source org_car2x_veins_modules_mac_sigChannelBusy
par Scenario.node[99].nic typename "\"org.car2x.veins.modules.nic.Nic80211p\""
par Scenario.node[99].nic connectionManagerName "\"connectionManager\""
par Scenario.node[99].veinsmobility typename "\"org.car2x.veins.modules.mobility.traci.TraCIMobility\""
par Scenario.node[99].veinsmobility notAffectedByHostState true
par Scenario.node[99].veinsmobility x 0
par Scenario.node[99].veinsmobility y 0
par Scenario.node[99].veinsmobility z 1.895
par Scenario.node[99].veinsmobility xOrientation 1
par Scenario.node[99].veinsmobility yOrientation 0
par Scenario.node[99].veinsmobility zOrientation 0
par Scenario.node[99].veinsmobility hostPositionOffset 0m
attr unit m
par Scenario.node[99].veinsmobility setHostSpeed false
par Scenario.node[99].veinsmobility accidentCount 0
par Scenario.node[99].veinsmobility accidentStart 38.3383s
attr unit s
par Scenario.node[99].veinsmobility accidentDuration "uniform(30s, 60s)"
attr unit s
par Scenario.node[99].veinsmobility accidentInterval "uniform(30s, 60s)"
attr unit s
scalar Scenario.node[99].veinsmobility startTime 99.4
scalar Scenario.node[99].veinsmobility totalTime 0.6
scalar Scenario.node[99].veinsmobility stopTime 100
scalar Scenario.node[99].veinsmobility minSpeed 0.25815736496449
scalar Scenario.node[99].veinsmobility maxSpeed 1.4675557646479
scalar Scenario.node[99].veinsmobility totalDistance 0.51861939688916
scalar Scenario.node[99].veinsmobility totalCO2Emission 0.86567858635807
par Scenario.node[99] typename "\"org.car2x.veins.nodes.Car\""
par Scenario.node[99] applType "\"TraCIDemo11p\""
par Scenario.node[99] nicType "\"Nic80211p\""
par Scenario.node[99] veinsmobilityType "\"org.car2x.veins.modules.mobility.traci.TraCIMobility\""
par Scenario typename "\"org.car2x.veins.nodes.Scenario\""
par Scenario playgroundSizeX 600m
attr unit m
par Scenario playgroundSizeY 600m
attr unit m
par Scenario playgroundSizeZ 50m
attr unit m

