version 3
run Scenario5-9-20260628-09:31:47-3187
attr configname Scenario5
attr datetime 20260628-09:31:47
attr datetimef 20260628-093147
attr experiment Scenario5
attr inifile omnetpp.ini
attr iterationvars ""
attr iterationvarsd ""
attr iterationvarsf ""
attr measurement ""
attr network org.car2x.veins.nodes.Scenario
attr processid 3187
attr repetition 9
attr replication #9
attr resultdir results
attr runnumber 9
attr seedset 9
config image-path ../../../veins/images
config *.playgroundSizeX 1100m
config *.playgroundSizeY 200m
config *.playgroundSizeZ 50m
config extends Scenario2
config *.manager.launchConfig "xmldoc(\"straight_road.launchd.xml\")"
config description "Two-Ray Ground (Radio bouncing off asphalt)"
config *.annotations.draw false
config *.**.nic.phy80211p.decider "xmldoc(\"config_2.xml\")"
config *.**.nic.phy80211p.analogueModels "xmldoc(\"config_2.xml\")"
config repeat 10
config seed-set 9
config network org.car2x.veins.nodes.Scenario
config sim-time-limit 100s
config *.playgroundSizeX 600m
config *.playgroundSizeY 600m
config *.playgroundSizeZ 50m
config *.manager.updateInterval 0.1s
config *.manager.host "\"localhost\""
config *.manager.port 9999
config *.manager.autoShutdown true
config *.manager.launchConfig "xmldoc(\"simulation.launchd.xml\")"
config *.node[*].veinsmobility.x 0
config *.node[*].veinsmobility.y 0
config *.node[*].veinsmobility.z 1.895
config *.node[*].applType "\"TraCIDemo11p\""
config *.node[*].appl.headerLength "80 bit"
config *.node[*].appl.sendBeacons true
config *.node[*].appl.dataOnSch false
config *.node[*].appl.beaconInterval 0.1s
config *.connectionManager.sendDirect true
config *.connectionManager.maxInterfDist 500m
config *.connectionManager.drawMaxIntfDist false
config *.**.nic.mac1609_4.useServiceChannel false
config *.**.nic.mac1609_4.txPower 20mW
config *.**.nic.mac1609_4.bitrate 6Mbps
config *.**.nic.phy80211p.minPowerLevel -110dBm
config *.**.nic.phy80211p.useNoiseFloor true
config *.**.nic.phy80211p.noiseFloor -98dBm
config *.**.nic.phy80211p.usePropagationDelay true
config **.vector-recording true
config **.scalar-recording true
config *.**.nic.phy80211p.*.vector-recording true
config *.**.nic.mac1609_4.*.vector-recording true
config **.rcvdPower:vector.vector-recording true
config **.snir:vector.vector-recording true

par Scenario.node[1].appl typename "\"org.car2x.veins.modules.application.traci.TraCIDemo11p\""
par Scenario.node[1].appl headerLength 80bit
attr unit bit
par Scenario.node[1].appl sendBeacons true
par Scenario.node[1].appl beaconLengthBits 256bit
attr unit bit
par Scenario.node[1].appl beaconUserPriority 7
par Scenario.node[1].appl beaconInterval 0.1s
attr unit s
par Scenario.node[1].appl dataLengthBits 1024bit
attr unit bit
par Scenario.node[1].appl dataOnSch false
par Scenario.node[1].appl dataUserPriority 7
par Scenario.node[1].appl avoidBeaconSynchronization true
par Scenario.node[1].appl sendWSA false
par Scenario.node[1].appl wsaLengthBits 250bit
attr unit bit
par Scenario.node[1].appl wsaInterval 1s
attr unit s
scalar Scenario.node[1].appl generatedWSMs 0
scalar Scenario.node[1].appl receivedWSMs 0
scalar Scenario.node[1].appl generatedBSMs 754
scalar Scenario.node[1].appl receivedBSMs 15693
scalar Scenario.node[1].appl generatedWSAs 0
scalar Scenario.node[1].appl receivedWSAs 0
par Scenario.node[1].nic.phy80211p typename "\"org.car2x.veins.modules.phy.PhyLayer80211p\""
par Scenario.node[1].nic.phy80211p recordStats false
par Scenario.node[1].nic.phy80211p usePropagationDelay true
par Scenario.node[1].nic.phy80211p noiseFloor -98dBm
attr unit dBm
par Scenario.node[1].nic.phy80211p useNoiseFloor true
par Scenario.node[1].nic.phy80211p antenna "<root>...</root> at content:1"
par Scenario.node[1].nic.phy80211p antennaOffsetX 0m
attr unit m
par Scenario.node[1].nic.phy80211p antennaOffsetY 0m
attr unit m
par Scenario.node[1].nic.phy80211p antennaOffsetZ 1.895m
attr unit m
par Scenario.node[1].nic.phy80211p antennaOffsetYaw 0rad
attr unit rad
par Scenario.node[1].nic.phy80211p analogueModels "<root>...</root> at /home/vagrant/spe-homework-project/Project/simulations//config_2.xml:2"
par Scenario.node[1].nic.phy80211p decider "<root>...</root> at /home/vagrant/spe-homework-project/Project/simulations//config_2.xml:2"
par Scenario.node[1].nic.phy80211p minPowerLevel -110dBm
attr unit dBm
par Scenario.node[1].nic.phy80211p timeRXToTX 0s
attr unit s
par Scenario.node[1].nic.phy80211p timeRXToSleep 0s
attr unit s
par Scenario.node[1].nic.phy80211p timeTXToRX 0s
attr unit s
par Scenario.node[1].nic.phy80211p timeTXToSleep 0s
attr unit s
par Scenario.node[1].nic.phy80211p timeSleepToRX 0s
attr unit s
par Scenario.node[1].nic.phy80211p timeSleepToTX 0s
attr unit s
par Scenario.node[1].nic.phy80211p initialRadioState 0
par Scenario.node[1].nic.phy80211p radioMinAtt 1
par Scenario.node[1].nic.phy80211p radioMaxAtt 0
par Scenario.node[1].nic.phy80211p nbRadioChannels 1
par Scenario.node[1].nic.phy80211p initialRadioChannel 0
par Scenario.node[1].nic.phy80211p ccaThreshold -65dBm
attr unit dBm
par Scenario.node[1].nic.phy80211p collectCollisionStatistics false
par Scenario.node[1].nic.phy80211p allowTxDuringRx false
scalar Scenario.node[1].nic.phy80211p busyTime 0.021718620689663
par Scenario.node[1].nic.mac1609_4 typename "\"org.car2x.veins.modules.mac.ieee80211p.Mac1609_4\""
par Scenario.node[1].nic.mac1609_4 notAffectedByHostState false
par Scenario.node[1].nic.mac1609_4 headerLength 0bit
attr unit bit
par Scenario.node[1].nic.mac1609_4 address "\"auto\""
par Scenario.node[1].nic.mac1609_4 useServiceChannel false
par Scenario.node[1].nic.mac1609_4 serviceChannel 1
par Scenario.node[1].nic.mac1609_4 bitrate 6000000bps
attr unit bps
par Scenario.node[1].nic.mac1609_4 syncOffset 0.0003s
attr unit s
par Scenario.node[1].nic.mac1609_4 txPower 20mW
attr unit mW
par Scenario.node[1].nic.mac1609_4 queueSize 0
par Scenario.node[1].nic.mac1609_4 dot11RTSThreshold 12000bit
attr unit bit
par Scenario.node[1].nic.mac1609_4 dot11ShortRetryLimit 7
par Scenario.node[1].nic.mac1609_4 dot11LongRetryLimit 4
par Scenario.node[1].nic.mac1609_4 ackLength 112bit
attr unit bit
par Scenario.node[1].nic.mac1609_4 useAcks false
par Scenario.node[1].nic.mac1609_4 frameErrorRate 0
par Scenario.node[1].nic.mac1609_4 ackErrorRate 0
scalar Scenario.node[1].nic.mac1609_4 ReceivedUnicastPackets 0
scalar Scenario.node[1].nic.mac1609_4 ReceivedBroadcasts 15693
scalar Scenario.node[1].nic.mac1609_4 SentPackets 754
scalar Scenario.node[1].nic.mac1609_4 SentAcknowledgements 0
scalar Scenario.node[1].nic.mac1609_4 RetriesExceeded 0
scalar Scenario.node[1].nic.mac1609_4 SNIRLostPackets 53
scalar Scenario.node[1].nic.mac1609_4 RXTXLostPackets 0
scalar Scenario.node[1].nic.mac1609_4 TotalLostPackets 53
scalar Scenario.node[1].nic.mac1609_4 DroppedPacketsInMac 0
scalar Scenario.node[1].nic.mac1609_4 TooLittleTime 0
scalar Scenario.node[1].nic.mac1609_4 TimesIntoBackoff 754
scalar Scenario.node[1].nic.mac1609_4 SlotsBackoff 1112
scalar Scenario.node[1].nic.mac1609_4 NumInternalContention 0
scalar Scenario.node[1].nic.mac1609_4 totalBusyTime 1.715881258857
scalar Scenario.node[1].nic.mac1609_4 retriesExceeded:count 0
attr recordingmode count
attr source org_car2x_veins_modules_mac_sigRetriesExceeded
scalar Scenario.node[1].nic.mac1609_4 sentAcks:count 0
attr recordingmode count
attr source org_car2x_veins_modules_mac_sigSentAck
scalar Scenario.node[1].nic.mac1609_4 sentPackets:count 754
attr recordingmode count
attr source org_car2x_veins_modules_mac_sigSentPacket
scalar Scenario.node[1].nic.mac1609_4 collisions:count 0
attr recordingmode count
attr source org_car2x_veins_modules_mac_sigCollision
scalar Scenario.node[1].nic.mac1609_4 channelBusy:timeavg 0.022757045873444
attr recordingmode timeavg
attr source org_car2x_veins_modules_mac_sigChannelBusy
par Scenario.node[1].nic typename "\"org.car2x.veins.modules.nic.Nic80211p\""
par Scenario.node[1].nic connectionManagerName "\"connectionManager\""
par Scenario.node[1].veinsmobility typename "\"org.car2x.veins.modules.mobility.traci.TraCIMobility\""
par Scenario.node[1].veinsmobility notAffectedByHostState true
par Scenario.node[1].veinsmobility x 0
par Scenario.node[1].veinsmobility y 0
par Scenario.node[1].veinsmobility z 1.895
par Scenario.node[1].veinsmobility xOrientation 1
par Scenario.node[1].veinsmobility yOrientation 0
par Scenario.node[1].veinsmobility zOrientation 0
par Scenario.node[1].veinsmobility hostPositionOffset 0m
attr unit m
par Scenario.node[1].veinsmobility setHostSpeed false
par Scenario.node[1].veinsmobility accidentCount 0
par Scenario.node[1].veinsmobility accidentStart 34.1584s
attr unit s
par Scenario.node[1].veinsmobility accidentDuration "uniform(30s, 60s)"
attr unit s
par Scenario.node[1].veinsmobility accidentInterval "uniform(30s, 60s)"
attr unit s
scalar Scenario.node[1].veinsmobility startTime 1.1
scalar Scenario.node[1].veinsmobility totalTime 75.3
scalar Scenario.node[1].veinsmobility stopTime 76.5
scalar Scenario.node[1].veinsmobility minSpeed 0.25765649397555
scalar Scenario.node[1].veinsmobility maxSpeed 13.886792508238
scalar Scenario.node[1].veinsmobility totalDistance 994.16753151496
scalar Scenario.node[1].veinsmobility totalCO2Emission 192.45413633424
par Scenario.node[1] typename "\"org.car2x.veins.nodes.Car\""
par Scenario.node[1] applType "\"TraCIDemo11p\""
par Scenario.node[1] nicType "\"Nic80211p\""
par Scenario.node[1] veinsmobilityType "\"org.car2x.veins.modules.mobility.traci.TraCIMobility\""
par Scenario.node[3].appl typename "\"org.car2x.veins.modules.application.traci.TraCIDemo11p\""
par Scenario.node[3].appl headerLength 80bit
attr unit bit
par Scenario.node[3].appl sendBeacons true
par Scenario.node[3].appl beaconLengthBits 256bit
attr unit bit
par Scenario.node[3].appl beaconUserPriority 7
par Scenario.node[3].appl beaconInterval 0.1s
attr unit s
par Scenario.node[3].appl dataLengthBits 1024bit
attr unit bit
par Scenario.node[3].appl dataOnSch false
par Scenario.node[3].appl dataUserPriority 7
par Scenario.node[3].appl avoidBeaconSynchronization true
par Scenario.node[3].appl sendWSA false
par Scenario.node[3].appl wsaLengthBits 250bit
attr unit bit
par Scenario.node[3].appl wsaInterval 1s
attr unit s
scalar Scenario.node[3].appl generatedWSMs 0
scalar Scenario.node[3].appl receivedWSMs 0
scalar Scenario.node[3].appl generatedBSMs 770
scalar Scenario.node[3].appl receivedBSMs 17667
scalar Scenario.node[3].appl generatedWSAs 0
scalar Scenario.node[3].appl receivedWSAs 0
par Scenario.node[3].nic.phy80211p typename "\"org.car2x.veins.modules.phy.PhyLayer80211p\""
par Scenario.node[3].nic.phy80211p recordStats false
par Scenario.node[3].nic.phy80211p usePropagationDelay true
par Scenario.node[3].nic.phy80211p noiseFloor -98dBm
attr unit dBm
par Scenario.node[3].nic.phy80211p useNoiseFloor true
par Scenario.node[3].nic.phy80211p antenna "<root>...</root> at content:1"
par Scenario.node[3].nic.phy80211p antennaOffsetX 0m
attr unit m
par Scenario.node[3].nic.phy80211p antennaOffsetY 0m
attr unit m
par Scenario.node[3].nic.phy80211p antennaOffsetZ 1.895m
attr unit m
par Scenario.node[3].nic.phy80211p antennaOffsetYaw 0rad
attr unit rad
par Scenario.node[3].nic.phy80211p analogueModels "<root>...</root> at /home/vagrant/spe-homework-project/Project/simulations//config_2.xml:2"
par Scenario.node[3].nic.phy80211p decider "<root>...</root> at /home/vagrant/spe-homework-project/Project/simulations//config_2.xml:2"
par Scenario.node[3].nic.phy80211p minPowerLevel -110dBm
attr unit dBm
par Scenario.node[3].nic.phy80211p timeRXToTX 0s
attr unit s
par Scenario.node[3].nic.phy80211p timeRXToSleep 0s
attr unit s
par Scenario.node[3].nic.phy80211p timeTXToRX 0s
attr unit s
par Scenario.node[3].nic.phy80211p timeTXToSleep 0s
attr unit s
par Scenario.node[3].nic.phy80211p timeSleepToRX 0s
attr unit s
par Scenario.node[3].nic.phy80211p timeSleepToTX 0s
attr unit s
par Scenario.node[3].nic.phy80211p initialRadioState 0
par Scenario.node[3].nic.phy80211p radioMinAtt 1
par Scenario.node[3].nic.phy80211p radioMaxAtt 0
par Scenario.node[3].nic.phy80211p nbRadioChannels 1
par Scenario.node[3].nic.phy80211p initialRadioChannel 0
par Scenario.node[3].nic.phy80211p ccaThreshold -65dBm
attr unit dBm
par Scenario.node[3].nic.phy80211p collectCollisionStatistics false
par Scenario.node[3].nic.phy80211p allowTxDuringRx false
scalar Scenario.node[3].nic.phy80211p busyTime 0.023996987012997
par Scenario.node[3].nic.mac1609_4 typename "\"org.car2x.veins.modules.mac.ieee80211p.Mac1609_4\""
par Scenario.node[3].nic.mac1609_4 notAffectedByHostState false
par Scenario.node[3].nic.mac1609_4 headerLength 0bit
attr unit bit
par Scenario.node[3].nic.mac1609_4 address "\"auto\""
par Scenario.node[3].nic.mac1609_4 useServiceChannel false
par Scenario.node[3].nic.mac1609_4 serviceChannel 1
par Scenario.node[3].nic.mac1609_4 bitrate 6000000bps
attr unit bps
par Scenario.node[3].nic.mac1609_4 syncOffset 0.0003s
attr unit s
par Scenario.node[3].nic.mac1609_4 txPower 20mW
attr unit mW
par Scenario.node[3].nic.mac1609_4 queueSize 0
par Scenario.node[3].nic.mac1609_4 dot11RTSThreshold 12000bit
attr unit bit
par Scenario.node[3].nic.mac1609_4 dot11ShortRetryLimit 7
par Scenario.node[3].nic.mac1609_4 dot11LongRetryLimit 4
par Scenario.node[3].nic.mac1609_4 ackLength 112bit
attr unit bit
par Scenario.node[3].nic.mac1609_4 useAcks false
par Scenario.node[3].nic.mac1609_4 frameErrorRate 0
par Scenario.node[3].nic.mac1609_4 ackErrorRate 0
scalar Scenario.node[3].nic.mac1609_4 ReceivedUnicastPackets 0
scalar Scenario.node[3].nic.mac1609_4 ReceivedBroadcasts 17667
scalar Scenario.node[3].nic.mac1609_4 SentPackets 770
scalar Scenario.node[3].nic.mac1609_4 SentAcknowledgements 0
scalar Scenario.node[3].nic.mac1609_4 RetriesExceeded 0
scalar Scenario.node[3].nic.mac1609_4 SNIRLostPackets 100
scalar Scenario.node[3].nic.mac1609_4 RXTXLostPackets 0
scalar Scenario.node[3].nic.mac1609_4 TotalLostPackets 100
scalar Scenario.node[3].nic.mac1609_4 DroppedPacketsInMac 0
scalar Scenario.node[3].nic.mac1609_4 TooLittleTime 0
scalar Scenario.node[3].nic.mac1609_4 TimesIntoBackoff 770
scalar Scenario.node[3].nic.mac1609_4 SlotsBackoff 1170
scalar Scenario.node[3].nic.mac1609_4 NumInternalContention 0
scalar Scenario.node[3].nic.mac1609_4 totalBusyTime 1.927580987525
scalar Scenario.node[3].nic.mac1609_4 retriesExceeded:count 0
attr recordingmode count
attr source org_car2x_veins_modules_mac_sigRetriesExceeded
scalar Scenario.node[3].nic.mac1609_4 sentAcks:count 0
attr recordingmode count
attr source org_car2x_veins_modules_mac_sigSentAck
scalar Scenario.node[3].nic.mac1609_4 sentPackets:count 770
attr recordingmode count
attr source org_car2x_veins_modules_mac_sigSentPacket
scalar Scenario.node[3].nic.mac1609_4 collisions:count 0
attr recordingmode count
attr source org_car2x_veins_modules_mac_sigCollision
scalar Scenario.node[3].nic.mac1609_4 channelBusy:timeavg 0.025033519318518
attr recordingmode timeavg
attr source org_car2x_veins_modules_mac_sigChannelBusy
par Scenario.node[3].nic typename "\"org.car2x.veins.modules.nic.Nic80211p\""
par Scenario.node[3].nic connectionManagerName "\"connectionManager\""
par Scenario.node[3].veinsmobility typename "\"org.car2x.veins.modules.mobility.traci.TraCIMobility\""
par Scenario.node[3].veinsmobility notAffectedByHostState true
par Scenario.node[3].veinsmobility x 0
par Scenario.node[3].veinsmobility y 0
par Scenario.node[3].veinsmobility z 1.895
par Scenario.node[3].veinsmobility xOrientation 1
par Scenario.node[3].veinsmobility yOrientation 0
par Scenario.node[3].veinsmobility zOrientation 0
par Scenario.node[3].veinsmobility hostPositionOffset 0m
attr unit m
par Scenario.node[3].veinsmobility setHostSpeed false
par Scenario.node[3].veinsmobility accidentCount 0
par Scenario.node[3].veinsmobility accidentStart 38.4431s
attr unit s
par Scenario.node[3].veinsmobility accidentDuration "uniform(30s, 60s)"
attr unit s
par Scenario.node[3].veinsmobility accidentInterval "uniform(30s, 60s)"
attr unit s
scalar Scenario.node[3].veinsmobility startTime 4.1
scalar Scenario.node[3].veinsmobility totalTime 76.9
scalar Scenario.node[3].veinsmobility stopTime 81.1
scalar Scenario.node[3].veinsmobility minSpeed 0.25125736685283
scalar Scenario.node[3].veinsmobility maxSpeed 13.557722347188
scalar Scenario.node[3].veinsmobility totalDistance 994.34139675268
scalar Scenario.node[3].veinsmobility totalCO2Emission 191.37622007914
par Scenario.node[3] typename "\"org.car2x.veins.nodes.Car\""
par Scenario.node[3] applType "\"TraCIDemo11p\""
par Scenario.node[3] nicType "\"Nic80211p\""
par Scenario.node[3] veinsmobilityType "\"org.car2x.veins.modules.mobility.traci.TraCIMobility\""
par Scenario.node[2].appl typename "\"org.car2x.veins.modules.application.traci.TraCIDemo11p\""
par Scenario.node[2].appl headerLength 80bit
attr unit bit
par Scenario.node[2].appl sendBeacons true
par Scenario.node[2].appl beaconLengthBits 256bit
attr unit bit
par Scenario.node[2].appl beaconUserPriority 7
par Scenario.node[2].appl beaconInterval 0.1s
attr unit s
par Scenario.node[2].appl dataLengthBits 1024bit
attr unit bit
par Scenario.node[2].appl dataOnSch false
par Scenario.node[2].appl dataUserPriority 7
par Scenario.node[2].appl avoidBeaconSynchronization true
par Scenario.node[2].appl sendWSA false
par Scenario.node[2].appl wsaLengthBits 250bit
attr unit bit
par Scenario.node[2].appl wsaInterval 1s
attr unit s
scalar Scenario.node[2].appl generatedWSMs 0
scalar Scenario.node[2].appl receivedWSMs 0
scalar Scenario.node[2].appl generatedBSMs 813
scalar Scenario.node[2].appl receivedBSMs 18308
scalar Scenario.node[2].appl generatedWSAs 0
scalar Scenario.node[2].appl receivedWSAs 0
par Scenario.node[2].nic.phy80211p typename "\"org.car2x.veins.modules.phy.PhyLayer80211p\""
par Scenario.node[2].nic.phy80211p recordStats false
par Scenario.node[2].nic.phy80211p usePropagationDelay true
par Scenario.node[2].nic.phy80211p noiseFloor -98dBm
attr unit dBm
par Scenario.node[2].nic.phy80211p useNoiseFloor true
par Scenario.node[2].nic.phy80211p antenna "<root>...</root> at content:1"
par Scenario.node[2].nic.phy80211p antennaOffsetX 0m
attr unit m
par Scenario.node[2].nic.phy80211p antennaOffsetY 0m
attr unit m
par Scenario.node[2].nic.phy80211p antennaOffsetZ 1.895m
attr unit m
par Scenario.node[2].nic.phy80211p antennaOffsetYaw 0rad
attr unit rad
par Scenario.node[2].nic.phy80211p analogueModels "<root>...</root> at /home/vagrant/spe-homework-project/Project/simulations//config_2.xml:2"
par Scenario.node[2].nic.phy80211p decider "<root>...</root> at /home/vagrant/spe-homework-project/Project/simulations//config_2.xml:2"
par Scenario.node[2].nic.phy80211p minPowerLevel -110dBm
attr unit dBm
par Scenario.node[2].nic.phy80211p timeRXToTX 0s
attr unit s
par Scenario.node[2].nic.phy80211p timeRXToSleep 0s
attr unit s
par Scenario.node[2].nic.phy80211p timeTXToRX 0s
attr unit s
par Scenario.node[2].nic.phy80211p timeTXToSleep 0s
attr unit s
par Scenario.node[2].nic.phy80211p timeSleepToRX 0s
attr unit s
par Scenario.node[2].nic.phy80211p timeSleepToTX 0s
attr unit s
par Scenario.node[2].nic.phy80211p initialRadioState 0
par Scenario.node[2].nic.phy80211p radioMinAtt 1
par Scenario.node[2].nic.phy80211p radioMaxAtt 0
par Scenario.node[2].nic.phy80211p nbRadioChannels 1
par Scenario.node[2].nic.phy80211p initialRadioChannel 0
par Scenario.node[2].nic.phy80211p ccaThreshold -65dBm
attr unit dBm
par Scenario.node[2].nic.phy80211p collectCollisionStatistics false
par Scenario.node[2].nic.phy80211p allowTxDuringRx false
scalar Scenario.node[2].nic.phy80211p busyTime 0.024063271832729
par Scenario.node[2].nic.mac1609_4 typename "\"org.car2x.veins.modules.mac.ieee80211p.Mac1609_4\""
par Scenario.node[2].nic.mac1609_4 notAffectedByHostState false
par Scenario.node[2].nic.mac1609_4 headerLength 0bit
attr unit bit
par Scenario.node[2].nic.mac1609_4 address "\"auto\""
par Scenario.node[2].nic.mac1609_4 useServiceChannel false
par Scenario.node[2].nic.mac1609_4 serviceChannel 1
par Scenario.node[2].nic.mac1609_4 bitrate 6000000bps
attr unit bps
par Scenario.node[2].nic.mac1609_4 syncOffset 0.0003s
attr unit s
par Scenario.node[2].nic.mac1609_4 txPower 20mW
attr unit mW
par Scenario.node[2].nic.mac1609_4 queueSize 0
par Scenario.node[2].nic.mac1609_4 dot11RTSThreshold 12000bit
attr unit bit
par Scenario.node[2].nic.mac1609_4 dot11ShortRetryLimit 7
par Scenario.node[2].nic.mac1609_4 dot11LongRetryLimit 4
par Scenario.node[2].nic.mac1609_4 ackLength 112bit
attr unit bit
par Scenario.node[2].nic.mac1609_4 useAcks false
par Scenario.node[2].nic.mac1609_4 frameErrorRate 0
par Scenario.node[2].nic.mac1609_4 ackErrorRate 0
scalar Scenario.node[2].nic.mac1609_4 ReceivedUnicastPackets 0
scalar Scenario.node[2].nic.mac1609_4 ReceivedBroadcasts 18308
scalar Scenario.node[2].nic.mac1609_4 SentPackets 813
scalar Scenario.node[2].nic.mac1609_4 SentAcknowledgements 0
scalar Scenario.node[2].nic.mac1609_4 RetriesExceeded 0
scalar Scenario.node[2].nic.mac1609_4 SNIRLostPackets 503
scalar Scenario.node[2].nic.mac1609_4 RXTXLostPackets 0
scalar Scenario.node[2].nic.mac1609_4 TotalLostPackets 503
scalar Scenario.node[2].nic.mac1609_4 DroppedPacketsInMac 0
scalar Scenario.node[2].nic.mac1609_4 TooLittleTime 0
scalar Scenario.node[2].nic.mac1609_4 TimesIntoBackoff 813
scalar Scenario.node[2].nic.mac1609_4 SlotsBackoff 1235
scalar Scenario.node[2].nic.mac1609_4 NumInternalContention 0
scalar Scenario.node[2].nic.mac1609_4 totalBusyTime 2.034115442256
scalar Scenario.node[2].nic.mac1609_4 retriesExceeded:count 0
attr recordingmode count
attr source org_car2x_veins_modules_mac_sigRetriesExceeded
scalar Scenario.node[2].nic.mac1609_4 sentAcks:count 0
attr recordingmode count
attr source org_car2x_veins_modules_mac_sigSentAck
scalar Scenario.node[2].nic.mac1609_4 sentPackets:count 813
attr recordingmode count
attr source org_car2x_veins_modules_mac_sigSentPacket
scalar Scenario.node[2].nic.mac1609_4 collisions:count 0
attr recordingmode count
attr source org_car2x_veins_modules_mac_sigCollision
scalar Scenario.node[2].nic.mac1609_4 channelBusy:timeavg 0.025019870138461
attr recordingmode timeavg
attr source org_car2x_veins_modules_mac_sigChannelBusy
par Scenario.node[2].nic typename "\"org.car2x.veins.modules.nic.Nic80211p\""
par Scenario.node[2].nic connectionManagerName "\"connectionManager\""
par Scenario.node[2].veinsmobility typename "\"org.car2x.veins.modules.mobility.traci.TraCIMobility\""
par Scenario.node[2].veinsmobility notAffectedByHostState true
par Scenario.node[2].veinsmobility x 0
par Scenario.node[2].veinsmobility y 0
par Scenario.node[2].veinsmobility z 1.895
par Scenario.node[2].veinsmobility xOrientation 1
par Scenario.node[2].veinsmobility yOrientation 0
par Scenario.node[2].veinsmobility zOrientation 0
par Scenario.node[2].veinsmobility hostPositionOffset 0m
attr unit m
par Scenario.node[2].veinsmobility setHostSpeed false
par Scenario.node[2].veinsmobility accidentCount 0
par Scenario.node[2].veinsmobility accidentStart 59.5008s
attr unit s
par Scenario.node[2].veinsmobility accidentDuration "uniform(30s, 60s)"
attr unit s
par Scenario.node[2].veinsmobility accidentInterval "uniform(30s, 60s)"
attr unit s
scalar Scenario.node[2].veinsmobility startTime 2.7
scalar Scenario.node[2].veinsmobility totalTime 81.2
scalar Scenario.node[2].veinsmobility stopTime 84
scalar Scenario.node[2].veinsmobility minSpeed 0.24813699515001
scalar Scenario.node[2].veinsmobility maxSpeed 12.781559226707
scalar Scenario.node[2].veinsmobility totalDistance 994.24696213469
scalar Scenario.node[2].veinsmobility totalCO2Emission 194.20738522823
par Scenario.node[2] typename "\"org.car2x.veins.nodes.Car\""
par Scenario.node[2] applType "\"TraCIDemo11p\""
par Scenario.node[2] nicType "\"Nic80211p\""
par Scenario.node[2] veinsmobilityType "\"org.car2x.veins.modules.mobility.traci.TraCIMobility\""
par Scenario.node[7].appl typename "\"org.car2x.veins.modules.application.traci.TraCIDemo11p\""
par Scenario.node[7].appl headerLength 80bit
attr unit bit
par Scenario.node[7].appl sendBeacons true
par Scenario.node[7].appl beaconLengthBits 256bit
attr unit bit
par Scenario.node[7].appl beaconUserPriority 7
par Scenario.node[7].appl beaconInterval 0.1s
attr unit s
par Scenario.node[7].appl dataLengthBits 1024bit
attr unit bit
par Scenario.node[7].appl dataOnSch false
par Scenario.node[7].appl dataUserPriority 7
par Scenario.node[7].appl avoidBeaconSynchronization true
par Scenario.node[7].appl sendWSA false
par Scenario.node[7].appl wsaLengthBits 250bit
attr unit bit
par Scenario.node[7].appl wsaInterval 1s
attr unit s
scalar Scenario.node[7].appl generatedWSMs 0
scalar Scenario.node[7].appl receivedWSMs 0
scalar Scenario.node[7].appl generatedBSMs 810
scalar Scenario.node[7].appl receivedBSMs 21576
scalar Scenario.node[7].appl generatedWSAs 0
scalar Scenario.node[7].appl receivedWSAs 0
par Scenario.node[7].nic.phy80211p typename "\"org.car2x.veins.modules.phy.PhyLayer80211p\""
par Scenario.node[7].nic.phy80211p recordStats false
par Scenario.node[7].nic.phy80211p usePropagationDelay true
par Scenario.node[7].nic.phy80211p noiseFloor -98dBm
attr unit dBm
par Scenario.node[7].nic.phy80211p useNoiseFloor true
par Scenario.node[7].nic.phy80211p antenna "<root>...</root> at content:1"
par Scenario.node[7].nic.phy80211p antennaOffsetX 0m
attr unit m
par Scenario.node[7].nic.phy80211p antennaOffsetY 0m
attr unit m
par Scenario.node[7].nic.phy80211p antennaOffsetZ 1.895m
attr unit m
par Scenario.node[7].nic.phy80211p antennaOffsetYaw 0rad
attr unit rad
par Scenario.node[7].nic.phy80211p analogueModels "<root>...</root> at /home/vagrant/spe-homework-project/Project/simulations//config_2.xml:2"
par Scenario.node[7].nic.phy80211p decider "<root>...</root> at /home/vagrant/spe-homework-project/Project/simulations//config_2.xml:2"
par Scenario.node[7].nic.phy80211p minPowerLevel -110dBm
attr unit dBm
par Scenario.node[7].nic.phy80211p timeRXToTX 0s
attr unit s
par Scenario.node[7].nic.phy80211p timeRXToSleep 0s
attr unit s
par Scenario.node[7].nic.phy80211p timeTXToRX 0s
attr unit s
par Scenario.node[7].nic.phy80211p timeTXToSleep 0s
attr unit s
par Scenario.node[7].nic.phy80211p timeSleepToRX 0s
attr unit s
par Scenario.node[7].nic.phy80211p timeSleepToTX 0s
attr unit s
par Scenario.node[7].nic.phy80211p initialRadioState 0
par Scenario.node[7].nic.phy80211p radioMinAtt 1
par Scenario.node[7].nic.phy80211p radioMaxAtt 0
par Scenario.node[7].nic.phy80211p nbRadioChannels 1
par Scenario.node[7].nic.phy80211p initialRadioChannel 0
par Scenario.node[7].nic.phy80211p ccaThreshold -65dBm
attr unit dBm
par Scenario.node[7].nic.phy80211p collectCollisionStatistics false
par Scenario.node[7].nic.phy80211p allowTxDuringRx false
scalar Scenario.node[7].nic.phy80211p busyTime 0.027761580246922
par Scenario.node[7].nic.mac1609_4 typename "\"org.car2x.veins.modules.mac.ieee80211p.Mac1609_4\""
par Scenario.node[7].nic.mac1609_4 notAffectedByHostState false
par Scenario.node[7].nic.mac1609_4 headerLength 0bit
attr unit bit
par Scenario.node[7].nic.mac1609_4 address "\"auto\""
par Scenario.node[7].nic.mac1609_4 useServiceChannel false
par Scenario.node[7].nic.mac1609_4 serviceChannel 1
par Scenario.node[7].nic.mac1609_4 bitrate 6000000bps
attr unit bps
par Scenario.node[7].nic.mac1609_4 syncOffset 0.0003s
attr unit s
par Scenario.node[7].nic.mac1609_4 txPower 20mW
attr unit mW
par Scenario.node[7].nic.mac1609_4 queueSize 0
par Scenario.node[7].nic.mac1609_4 dot11RTSThreshold 12000bit
attr unit bit
par Scenario.node[7].nic.mac1609_4 dot11ShortRetryLimit 7
par Scenario.node[7].nic.mac1609_4 dot11LongRetryLimit 4
par Scenario.node[7].nic.mac1609_4 ackLength 112bit
attr unit bit
par Scenario.node[7].nic.mac1609_4 useAcks false
par Scenario.node[7].nic.mac1609_4 frameErrorRate 0
par Scenario.node[7].nic.mac1609_4 ackErrorRate 0
scalar Scenario.node[7].nic.mac1609_4 ReceivedUnicastPackets 0
scalar Scenario.node[7].nic.mac1609_4 ReceivedBroadcasts 21576
scalar Scenario.node[7].nic.mac1609_4 SentPackets 810
scalar Scenario.node[7].nic.mac1609_4 SentAcknowledgements 0
scalar Scenario.node[7].nic.mac1609_4 RetriesExceeded 0
scalar Scenario.node[7].nic.mac1609_4 SNIRLostPackets 46
scalar Scenario.node[7].nic.mac1609_4 RXTXLostPackets 0
scalar Scenario.node[7].nic.mac1609_4 TotalLostPackets 46
scalar Scenario.node[7].nic.mac1609_4 DroppedPacketsInMac 0
scalar Scenario.node[7].nic.mac1609_4 TooLittleTime 0
scalar Scenario.node[7].nic.mac1609_4 TimesIntoBackoff 810
scalar Scenario.node[7].nic.mac1609_4 SlotsBackoff 1199
scalar Scenario.node[7].nic.mac1609_4 NumInternalContention 0
scalar Scenario.node[7].nic.mac1609_4 totalBusyTime 2.332316281946
scalar Scenario.node[7].nic.mac1609_4 retriesExceeded:count 0
attr recordingmode count
attr source org_car2x_veins_modules_mac_sigRetriesExceeded
scalar Scenario.node[7].nic.mac1609_4 sentAcks:count 0
attr recordingmode count
attr source org_car2x_veins_modules_mac_sigSentAck
scalar Scenario.node[7].nic.mac1609_4 sentPackets:count 810
attr recordingmode count
attr source org_car2x_veins_modules_mac_sigSentPacket
scalar Scenario.node[7].nic.mac1609_4 collisions:count 0
attr recordingmode count
attr source org_car2x_veins_modules_mac_sigCollision
scalar Scenario.node[7].nic.mac1609_4 channelBusy:timeavg 0.02879402817218
attr recordingmode timeavg
attr source org_car2x_veins_modules_mac_sigChannelBusy
par Scenario.node[7].nic typename "\"org.car2x.veins.modules.nic.Nic80211p\""
par Scenario.node[7].nic connectionManagerName "\"connectionManager\""
par Scenario.node[7].veinsmobility typename "\"org.car2x.veins.modules.mobility.traci.TraCIMobility\""
par Scenario.node[7].veinsmobility notAffectedByHostState true
par Scenario.node[7].veinsmobility x 0
par Scenario.node[7].veinsmobility y 0
par Scenario.node[7].veinsmobility z 1.895
par Scenario.node[7].veinsmobility xOrientation 1
par Scenario.node[7].veinsmobility yOrientation 0
par Scenario.node[7].veinsmobility zOrientation 0
par Scenario.node[7].veinsmobility hostPositionOffset 0m
attr unit m
par Scenario.node[7].veinsmobility setHostSpeed false
par Scenario.node[7].veinsmobility accidentCount 0
par Scenario.node[7].veinsmobility accidentStart 40.0635s
attr unit s
par Scenario.node[7].veinsmobility accidentDuration "uniform(30s, 60s)"
attr unit s
par Scenario.node[7].veinsmobility accidentInterval "uniform(30s, 60s)"
attr unit s
scalar Scenario.node[7].veinsmobility startTime 9.3
scalar Scenario.node[7].veinsmobility totalTime 80.9
scalar Scenario.node[7].veinsmobility stopTime 90.3
scalar Scenario.node[7].veinsmobility minSpeed 0.25443185446574
scalar Scenario.node[7].veinsmobility maxSpeed 12.832804385949
scalar Scenario.node[7].veinsmobility totalDistance 994.0719381762
scalar Scenario.node[7].veinsmobility totalCO2Emission 194.67892146436
par Scenario.node[7] typename "\"org.car2x.veins.nodes.Car\""
par Scenario.node[7] applType "\"TraCIDemo11p\""
par Scenario.node[7] nicType "\"Nic80211p\""
par Scenario.node[7] veinsmobilityType "\"org.car2x.veins.modules.mobility.traci.TraCIMobility\""
par Scenario.node[11].appl typename "\"org.car2x.veins.modules.application.traci.TraCIDemo11p\""
par Scenario.node[11].appl headerLength 80bit
attr unit bit
par Scenario.node[11].appl sendBeacons true
par Scenario.node[11].appl beaconLengthBits 256bit
attr unit bit
par Scenario.node[11].appl beaconUserPriority 7
par Scenario.node[11].appl beaconInterval 0.1s
attr unit s
par Scenario.node[11].appl dataLengthBits 1024bit
attr unit bit
par Scenario.node[11].appl dataOnSch false
par Scenario.node[11].appl dataUserPriority 7
par Scenario.node[11].appl avoidBeaconSynchronization true
par Scenario.node[11].appl sendWSA false
par Scenario.node[11].appl wsaLengthBits 250bit
attr unit bit
par Scenario.node[11].appl wsaInterval 1s
attr unit s
scalar Scenario.node[11].appl generatedWSMs 0
scalar Scenario.node[11].appl receivedWSMs 0
scalar Scenario.node[11].appl generatedBSMs 834
scalar Scenario.node[11].appl receivedBSMs 24260
scalar Scenario.node[11].appl generatedWSAs 0
scalar Scenario.node[11].appl receivedWSAs 0
par Scenario.node[11].nic.phy80211p typename "\"org.car2x.veins.modules.phy.PhyLayer80211p\""
par Scenario.node[11].nic.phy80211p recordStats false
par Scenario.node[11].nic.phy80211p usePropagationDelay true
par Scenario.node[11].nic.phy80211p noiseFloor -98dBm
attr unit dBm
par Scenario.node[11].nic.phy80211p useNoiseFloor true
par Scenario.node[11].nic.phy80211p antenna "<root>...</root> at content:1"
par Scenario.node[11].nic.phy80211p antennaOffsetX 0m
attr unit m
par Scenario.node[11].nic.phy80211p antennaOffsetY 0m
attr unit m
par Scenario.node[11].nic.phy80211p antennaOffsetZ 1.895m
attr unit m
par Scenario.node[11].nic.phy80211p antennaOffsetYaw 0rad
attr unit rad
par Scenario.node[11].nic.phy80211p analogueModels "<root>...</root> at /home/vagrant/spe-homework-project/Project/simulations//config_2.xml:2"
par Scenario.node[11].nic.phy80211p decider "<root>...</root> at /home/vagrant/spe-homework-project/Project/simulations//config_2.xml:2"
par Scenario.node[11].nic.phy80211p minPowerLevel -110dBm
attr unit dBm
par Scenario.node[11].nic.phy80211p timeRXToTX 0s
attr unit s
par Scenario.node[11].nic.phy80211p timeRXToSleep 0s
attr unit s
par Scenario.node[11].nic.phy80211p timeTXToRX 0s
attr unit s
par Scenario.node[11].nic.phy80211p timeTXToSleep 0s
attr unit s
par Scenario.node[11].nic.phy80211p timeSleepToRX 0s
attr unit s
par Scenario.node[11].nic.phy80211p timeSleepToTX 0s
attr unit s
par Scenario.node[11].nic.phy80211p initialRadioState 0
par Scenario.node[11].nic.phy80211p radioMinAtt 1
par Scenario.node[11].nic.phy80211p radioMaxAtt 0
par Scenario.node[11].nic.phy80211p nbRadioChannels 1
par Scenario.node[11].nic.phy80211p initialRadioChannel 0
par Scenario.node[11].nic.phy80211p ccaThreshold -65dBm
attr unit dBm
par Scenario.node[11].nic.phy80211p collectCollisionStatistics false
par Scenario.node[11].nic.phy80211p allowTxDuringRx false
scalar Scenario.node[11].nic.phy80211p busyTime 0.03044182254197
par Scenario.node[11].nic.mac1609_4 typename "\"org.car2x.veins.modules.mac.ieee80211p.Mac1609_4\""
par Scenario.node[11].nic.mac1609_4 notAffectedByHostState false
par Scenario.node[11].nic.mac1609_4 headerLength 0bit
attr unit bit
par Scenario.node[11].nic.mac1609_4 address "\"auto\""
par Scenario.node[11].nic.mac1609_4 useServiceChannel false
par Scenario.node[11].nic.mac1609_4 serviceChannel 1
par Scenario.node[11].nic.mac1609_4 bitrate 6000000bps
attr unit bps
par Scenario.node[11].nic.mac1609_4 syncOffset 0.0003s
attr unit s
par Scenario.node[11].nic.mac1609_4 txPower 20mW
attr unit mW
par Scenario.node[11].nic.mac1609_4 queueSize 0
par Scenario.node[11].nic.mac1609_4 dot11RTSThreshold 12000bit
attr unit bit
par Scenario.node[11].nic.mac1609_4 dot11ShortRetryLimit 7
par Scenario.node[11].nic.mac1609_4 dot11LongRetryLimit 4
par Scenario.node[11].nic.mac1609_4 ackLength 112bit
attr unit bit
par Scenario.node[11].nic.mac1609_4 useAcks false
par Scenario.node[11].nic.mac1609_4 frameErrorRate 0
par Scenario.node[11].nic.mac1609_4 ackErrorRate 0
scalar Scenario.node[11].nic.mac1609_4 ReceivedUnicastPackets 0
scalar Scenario.node[11].nic.mac1609_4 ReceivedBroadcasts 24260
scalar Scenario.node[11].nic.mac1609_4 SentPackets 834
scalar Scenario.node[11].nic.mac1609_4 SentAcknowledgements 0
scalar Scenario.node[11].nic.mac1609_4 RetriesExceeded 0
scalar Scenario.node[11].nic.mac1609_4 SNIRLostPackets 152
scalar Scenario.node[11].nic.mac1609_4 RXTXLostPackets 0
scalar Scenario.node[11].nic.mac1609_4 TotalLostPackets 152
scalar Scenario.node[11].nic.mac1609_4 DroppedPacketsInMac 0
scalar Scenario.node[11].nic.mac1609_4 TooLittleTime 0
scalar Scenario.node[11].nic.mac1609_4 TimesIntoBackoff 834
scalar Scenario.node[11].nic.mac1609_4 SlotsBackoff 1242
scalar Scenario.node[11].nic.mac1609_4 NumInternalContention 0
scalar Scenario.node[11].nic.mac1609_4 totalBusyTime 2.623644915129
scalar Scenario.node[11].nic.mac1609_4 retriesExceeded:count 0
attr recordingmode count
attr source org_car2x_veins_modules_mac_sigRetriesExceeded
scalar Scenario.node[11].nic.mac1609_4 sentAcks:count 0
attr recordingmode count
attr source org_car2x_veins_modules_mac_sigSentAck
scalar Scenario.node[11].nic.mac1609_4 sentPackets:count 834
attr recordingmode count
attr source org_car2x_veins_modules_mac_sigSentPacket
scalar Scenario.node[11].nic.mac1609_4 collisions:count 0
attr recordingmode count
attr source org_car2x_veins_modules_mac_sigCollision
scalar Scenario.node[11].nic.mac1609_4 channelBusy:timeavg 0.031458572123852
attr recordingmode timeavg
attr source org_car2x_veins_modules_mac_sigChannelBusy
par Scenario.node[11].nic typename "\"org.car2x.veins.modules.nic.Nic80211p\""
par Scenario.node[11].nic connectionManagerName "\"connectionManager\""
par Scenario.node[11].veinsmobility typename "\"org.car2x.veins.modules.mobility.traci.TraCIMobility\""
par Scenario.node[11].veinsmobility notAffectedByHostState true
par Scenario.node[11].veinsmobility x 0
par Scenario.node[11].veinsmobility y 0
par Scenario.node[11].veinsmobility z 1.895
par Scenario.node[11].veinsmobility xOrientation 1
par Scenario.node[11].veinsmobility yOrientation 0
par Scenario.node[11].veinsmobility zOrientation 0
par Scenario.node[11].veinsmobility hostPositionOffset 0m
attr unit m
par Scenario.node[11].veinsmobility setHostSpeed false
par Scenario.node[11].veinsmobility accidentCount 0
par Scenario.node[11].veinsmobility accidentStart 39.4594s
attr unit s
par Scenario.node[11].veinsmobility accidentDuration "uniform(30s, 60s)"
attr unit s
par Scenario.node[11].veinsmobility accidentInterval "uniform(30s, 60s)"
attr unit s
scalar Scenario.node[11].veinsmobility startTime 14.7
scalar Scenario.node[11].veinsmobility totalTime 83.3
scalar Scenario.node[11].veinsmobility stopTime 98.1
scalar Scenario.node[11].veinsmobility minSpeed 0.25215155488625
scalar Scenario.node[11].veinsmobility maxSpeed 14.185347848687
scalar Scenario.node[11].veinsmobility totalDistance 994.6080937515
scalar Scenario.node[11].veinsmobility totalCO2Emission 206.88701146505
par Scenario.node[11] typename "\"org.car2x.veins.nodes.Car\""
par Scenario.node[11] applType "\"TraCIDemo11p\""
par Scenario.node[11] nicType "\"Nic80211p\""
par Scenario.node[11] veinsmobilityType "\"org.car2x.veins.modules.mobility.traci.TraCIMobility\""
par Scenario.node[13].appl typename "\"org.car2x.veins.modules.application.traci.TraCIDemo11p\""
par Scenario.node[13].appl headerLength 80bit
attr unit bit
par Scenario.node[13].appl sendBeacons true
par Scenario.node[13].appl beaconLengthBits 256bit
attr unit bit
par Scenario.node[13].appl beaconUserPriority 7
par Scenario.node[13].appl beaconInterval 0.1s
attr unit s
par Scenario.node[13].appl dataLengthBits 1024bit
attr unit bit
par Scenario.node[13].appl dataOnSch false
par Scenario.node[13].appl dataUserPriority 7
par Scenario.node[13].appl avoidBeaconSynchronization true
par Scenario.node[13].appl sendWSA false
par Scenario.node[13].appl wsaLengthBits 250bit
attr unit bit
par Scenario.node[13].appl wsaInterval 1s
attr unit s
scalar Scenario.node[13].appl generatedWSMs 0
scalar Scenario.node[13].appl receivedWSMs 0
scalar Scenario.node[13].appl generatedBSMs 825
scalar Scenario.node[13].appl receivedBSMs 24536
scalar Scenario.node[13].appl generatedWSAs 0
scalar Scenario.node[13].appl receivedWSAs 0
par Scenario.node[13].nic.phy80211p typename "\"org.car2x.veins.modules.phy.PhyLayer80211p\""
par Scenario.node[13].nic.phy80211p recordStats false
par Scenario.node[13].nic.phy80211p usePropagationDelay true
par Scenario.node[13].nic.phy80211p noiseFloor -98dBm
attr unit dBm
par Scenario.node[13].nic.phy80211p useNoiseFloor true
par Scenario.node[13].nic.phy80211p antenna "<root>...</root> at content:1"
par Scenario.node[13].nic.phy80211p antennaOffsetX 0m
attr unit m
par Scenario.node[13].nic.phy80211p antennaOffsetY 0m
attr unit m
par Scenario.node[13].nic.phy80211p antennaOffsetZ 1.895m
attr unit m
par Scenario.node[13].nic.phy80211p antennaOffsetYaw 0rad
attr unit rad
par Scenario.node[13].nic.phy80211p analogueModels "<root>...</root> at /home/vagrant/spe-homework-project/Project/simulations//config_2.xml:2"
par Scenario.node[13].nic.phy80211p decider "<root>...</root> at /home/vagrant/spe-homework-project/Project/simulations//config_2.xml:2"
par Scenario.node[13].nic.phy80211p minPowerLevel -110dBm
attr unit dBm
par Scenario.node[13].nic.phy80211p timeRXToTX 0s
attr unit s
par Scenario.node[13].nic.phy80211p timeRXToSleep 0s
attr unit s
par Scenario.node[13].nic.phy80211p timeTXToRX 0s
attr unit s
par Scenario.node[13].nic.phy80211p timeTXToSleep 0s
attr unit s
par Scenario.node[13].nic.phy80211p timeSleepToRX 0s
attr unit s
par Scenario.node[13].nic.phy80211p timeSleepToTX 0s
attr unit s
par Scenario.node[13].nic.phy80211p initialRadioState 0
par Scenario.node[13].nic.phy80211p radioMinAtt 1
par Scenario.node[13].nic.phy80211p radioMaxAtt 0
par Scenario.node[13].nic.phy80211p nbRadioChannels 1
par Scenario.node[13].nic.phy80211p initialRadioChannel 0
par Scenario.node[13].nic.phy80211p ccaThreshold -65dBm
attr unit dBm
par Scenario.node[13].nic.phy80211p collectCollisionStatistics false
par Scenario.node[13].nic.phy80211p allowTxDuringRx false
scalar Scenario.node[13].nic.phy80211p busyTime 0.031211345454549
par Scenario.node[13].nic.mac1609_4 typename "\"org.car2x.veins.modules.mac.ieee80211p.Mac1609_4\""
par Scenario.node[13].nic.mac1609_4 notAffectedByHostState false
par Scenario.node[13].nic.mac1609_4 headerLength 0bit
attr unit bit
par Scenario.node[13].nic.mac1609_4 address "\"auto\""
par Scenario.node[13].nic.mac1609_4 useServiceChannel false
par Scenario.node[13].nic.mac1609_4 serviceChannel 1
par Scenario.node[13].nic.mac1609_4 bitrate 6000000bps
attr unit bps
par Scenario.node[13].nic.mac1609_4 syncOffset 0.0003s
attr unit s
par Scenario.node[13].nic.mac1609_4 txPower 20mW
attr unit mW
par Scenario.node[13].nic.mac1609_4 queueSize 0
par Scenario.node[13].nic.mac1609_4 dot11RTSThreshold 12000bit
attr unit bit
par Scenario.node[13].nic.mac1609_4 dot11ShortRetryLimit 7
par Scenario.node[13].nic.mac1609_4 dot11LongRetryLimit 4
par Scenario.node[13].nic.mac1609_4 ackLength 112bit
attr unit bit
par Scenario.node[13].nic.mac1609_4 useAcks false
par Scenario.node[13].nic.mac1609_4 frameErrorRate 0
par Scenario.node[13].nic.mac1609_4 ackErrorRate 0
scalar Scenario.node[13].nic.mac1609_4 ReceivedUnicastPackets 0
scalar Scenario.node[13].nic.mac1609_4 ReceivedBroadcasts 24536
scalar Scenario.node[13].nic.mac1609_4 SentPackets 825
scalar Scenario.node[13].nic.mac1609_4 SentAcknowledgements 0
scalar Scenario.node[13].nic.mac1609_4 RetriesExceeded 0
scalar Scenario.node[13].nic.mac1609_4 SNIRLostPackets 223
scalar Scenario.node[13].nic.mac1609_4 RXTXLostPackets 0
scalar Scenario.node[13].nic.mac1609_4 TotalLostPackets 223
scalar Scenario.node[13].nic.mac1609_4 DroppedPacketsInMac 0
scalar Scenario.node[13].nic.mac1609_4 TooLittleTime 0
scalar Scenario.node[13].nic.mac1609_4 TimesIntoBackoff 825
scalar Scenario.node[13].nic.mac1609_4 SlotsBackoff 1221
scalar Scenario.node[13].nic.mac1609_4 NumInternalContention 0
scalar Scenario.node[13].nic.mac1609_4 totalBusyTime 2.657622674612
scalar Scenario.node[13].nic.mac1609_4 retriesExceeded:count 0
attr recordingmode count
attr source org_car2x_veins_modules_mac_sigRetriesExceeded
scalar Scenario.node[13].nic.mac1609_4 sentAcks:count 0
attr recordingmode count
attr source org_car2x_veins_modules_mac_sigSentAck
scalar Scenario.node[13].nic.mac1609_4 sentPackets:count 825
attr recordingmode count
attr source org_car2x_veins_modules_mac_sigSentPacket
scalar Scenario.node[13].nic.mac1609_4 collisions:count 0
attr recordingmode count
attr source org_car2x_veins_modules_mac_sigCollision
scalar Scenario.node[13].nic.mac1609_4 channelBusy:timeavg 0.032213608177118
attr recordingmode timeavg
attr source org_car2x_veins_modules_mac_sigChannelBusy
par Scenario.node[13].nic typename "\"org.car2x.veins.modules.nic.Nic80211p\""
par Scenario.node[13].nic connectionManagerName "\"connectionManager\""
par Scenario.node[13].veinsmobility typename "\"org.car2x.veins.modules.mobility.traci.TraCIMobility\""
par Scenario.node[13].veinsmobility notAffectedByHostState true
par Scenario.node[13].veinsmobility x 0
par Scenario.node[13].veinsmobility y 0
par Scenario.node[13].veinsmobility z 1.895
par Scenario.node[13].veinsmobility xOrientation 1
par Scenario.node[13].veinsmobility yOrientation 0
par Scenario.node[13].veinsmobility zOrientation 0
par Scenario.node[13].veinsmobility hostPositionOffset 0m
attr unit m
par Scenario.node[13].veinsmobility setHostSpeed false
par Scenario.node[13].veinsmobility accidentCount 0
par Scenario.node[13].veinsmobility accidentStart 46.8694s
attr unit s
par Scenario.node[13].veinsmobility accidentDuration "uniform(30s, 60s)"
attr unit s
par Scenario.node[13].veinsmobility accidentInterval "uniform(30s, 60s)"
attr unit s
scalar Scenario.node[13].veinsmobility startTime 17.3
scalar Scenario.node[13].veinsmobility totalTime 82.4
scalar Scenario.node[13].veinsmobility stopTime 99.8
scalar Scenario.node[13].veinsmobility minSpeed 0.24720567006827
scalar Scenario.node[13].veinsmobility maxSpeed 16.481537141504
scalar Scenario.node[13].veinsmobility totalDistance 994.51818068063
scalar Scenario.node[13].veinsmobility totalCO2Emission 218.59935326564
par Scenario.node[13] typename "\"org.car2x.veins.nodes.Car\""
par Scenario.node[13] applType "\"TraCIDemo11p\""
par Scenario.node[13] nicType "\"Nic80211p\""
par Scenario.node[13] veinsmobilityType "\"org.car2x.veins.modules.mobility.traci.TraCIMobility\""
par Scenario.obstacles typename "\"org.car2x.veins.modules.obstacle.ObstacleControl\""
par Scenario.obstacles obstacles "<obstacles/> at content:1"
par Scenario.obstacles gridCellSize 250
par Scenario.annotations typename "\"org.car2x.veins.modules.world.annotations.AnnotationManager\""
par Scenario.annotations draw false
par Scenario.annotations annotations "<annotations/> at content:1"
par Scenario.connectionManager typename "\"org.car2x.veins.base.connectionManager.ConnectionManager\""
par Scenario.connectionManager sendDirect true
par Scenario.connectionManager maxInterfDist 500m
attr unit m
par Scenario.connectionManager drawMaxIntfDist false
par Scenario.world typename "\"org.car2x.veins.base.modules.BaseWorldUtility\""
par Scenario.world playgroundSizeX 1100m
attr unit m
par Scenario.world playgroundSizeY 200m
attr unit m
par Scenario.world playgroundSizeZ 50m
attr unit m
par Scenario.world useTorus false
par Scenario.world use2D false
par Scenario.manager typename "\"org.car2x.veins.modules.mobility.traci.TraCIScenarioManagerLaunchd\""
par Scenario.manager connectAt 0s
attr unit s
par Scenario.manager firstStepAt -1s
attr unit s
par Scenario.manager updateInterval 0.1s
attr unit s
par Scenario.manager moduleType "\"org.car2x.veins.nodes.Car\""
par Scenario.manager moduleName "\"node\""
par Scenario.manager moduleDisplayString "\"*='i=veins/node/car;is=vs'\""
par Scenario.manager trafficLightModuleType "\"\""
par Scenario.manager trafficLightModuleName "\"tls\""
par Scenario.manager trafficLightFilter "\"\""
par Scenario.manager trafficLightModuleDisplayString "\"i=veins/node/trafficlight;is=vs\""
par Scenario.manager host "\"localhost\""
par Scenario.manager port 9999
par Scenario.manager seed -1
par Scenario.manager autoShutdown true
par Scenario.manager margin 25
par Scenario.manager roiRoads "\"\""
par Scenario.manager roiRects "\"\""
par Scenario.manager penetrationRate 1
par Scenario.manager ignoreGuiCommands false
par Scenario.manager order -1
par Scenario.manager ignoreUnknownSubscriptionResults false
par Scenario.manager launchConfig "<launch>...</launch> at /home/vagrant/spe-homework-project/Project/simulations//straight_road.launchd.xml:1"
scalar Scenario.manager roiArea 0
par Scenario.roadsCanvasVisualizer typename "\"org.car2x.veins.visualizer.roads.RoadsCanvasVisualizer\""
par Scenario.roadsCanvasVisualizer enabled true
par Scenario.roadsCanvasVisualizer lineZIndex -1
par Scenario.roadsCanvasVisualizer lineColor "\"firebrick4\""
par Scenario.roadsCanvasVisualizer lineWidth 1
par Scenario.roadsCanvasVisualizer lineWidthZoom false
par Scenario.node[0].appl typename "\"org.car2x.veins.modules.application.traci.TraCIDemo11p\""
par Scenario.node[0].appl headerLength 80bit
attr unit bit
par Scenario.node[0].appl sendBeacons true
par Scenario.node[0].appl beaconLengthBits 256bit
attr unit bit
par Scenario.node[0].appl beaconUserPriority 7
par Scenario.node[0].appl beaconInterval 0.1s
attr unit s
par Scenario.node[0].appl dataLengthBits 1024bit
attr unit bit
par Scenario.node[0].appl dataOnSch false
par Scenario.node[0].appl dataUserPriority 7
par Scenario.node[0].appl avoidBeaconSynchronization true
par Scenario.node[0].appl sendWSA false
par Scenario.node[0].appl wsaLengthBits 250bit
attr unit bit
par Scenario.node[0].appl wsaInterval 1s
attr unit s
scalar Scenario.node[0].appl generatedWSMs 0
scalar Scenario.node[0].appl receivedWSMs 0
scalar Scenario.node[0].appl generatedBSMs 999
scalar Scenario.node[0].appl receivedBSMs 25597
scalar Scenario.node[0].appl generatedWSAs 0
scalar Scenario.node[0].appl receivedWSAs 0
par Scenario.node[0].nic.phy80211p typename "\"org.car2x.veins.modules.phy.PhyLayer80211p\""
par Scenario.node[0].nic.phy80211p recordStats false
par Scenario.node[0].nic.phy80211p usePropagationDelay true
par Scenario.node[0].nic.phy80211p noiseFloor -98dBm
attr unit dBm
par Scenario.node[0].nic.phy80211p useNoiseFloor true
par Scenario.node[0].nic.phy80211p antenna "<root>...</root> at content:1"
par Scenario.node[0].nic.phy80211p antennaOffsetX 0m
attr unit m
par Scenario.node[0].nic.phy80211p antennaOffsetY 0m
attr unit m
par Scenario.node[0].nic.phy80211p antennaOffsetZ 1.895m
attr unit m
par Scenario.node[0].nic.phy80211p antennaOffsetYaw 0rad
attr unit rad
par Scenario.node[0].nic.phy80211p analogueModels "<root>...</root> at /home/vagrant/spe-homework-project/Project/simulations//config_2.xml:2"
par Scenario.node[0].nic.phy80211p decider "<root>...</root> at /home/vagrant/spe-homework-project/Project/simulations//config_2.xml:2"
par Scenario.node[0].nic.phy80211p minPowerLevel -110dBm
attr unit dBm
par Scenario.node[0].nic.phy80211p timeRXToTX 0s
attr unit s
par Scenario.node[0].nic.phy80211p timeRXToSleep 0s
attr unit s
par Scenario.node[0].nic.phy80211p timeTXToRX 0s
attr unit s
par Scenario.node[0].nic.phy80211p timeTXToSleep 0s
attr unit s
par Scenario.node[0].nic.phy80211p timeSleepToRX 0s
attr unit s
par Scenario.node[0].nic.phy80211p timeSleepToTX 0s
attr unit s
par Scenario.node[0].nic.phy80211p initialRadioState 0
par Scenario.node[0].nic.phy80211p radioMinAtt 1
par Scenario.node[0].nic.phy80211p radioMaxAtt 0
par Scenario.node[0].nic.phy80211p nbRadioChannels 1
par Scenario.node[0].nic.phy80211p initialRadioChannel 0
par Scenario.node[0].nic.phy80211p ccaThreshold -65dBm
attr unit dBm
par Scenario.node[0].nic.phy80211p collectCollisionStatistics false
par Scenario.node[0].nic.phy80211p allowTxDuringRx false
scalar Scenario.node[0].nic.phy80211p busyTime 0.027101421421423
par Scenario.node[0].nic.mac1609_4 typename "\"org.car2x.veins.modules.mac.ieee80211p.Mac1609_4\""
par Scenario.node[0].nic.mac1609_4 notAffectedByHostState false
par Scenario.node[0].nic.mac1609_4 headerLength 0bit
attr unit bit
par Scenario.node[0].nic.mac1609_4 address "\"auto\""
par Scenario.node[0].nic.mac1609_4 useServiceChannel false
par Scenario.node[0].nic.mac1609_4 serviceChannel 1
par Scenario.node[0].nic.mac1609_4 bitrate 6000000bps
attr unit bps
par Scenario.node[0].nic.mac1609_4 syncOffset 0.0003s
attr unit s
par Scenario.node[0].nic.mac1609_4 txPower 20mW
attr unit mW
par Scenario.node[0].nic.mac1609_4 queueSize 0
par Scenario.node[0].nic.mac1609_4 dot11RTSThreshold 12000bit
attr unit bit
par Scenario.node[0].nic.mac1609_4 dot11ShortRetryLimit 7
par Scenario.node[0].nic.mac1609_4 dot11LongRetryLimit 4
par Scenario.node[0].nic.mac1609_4 ackLength 112bit
attr unit bit
par Scenario.node[0].nic.mac1609_4 useAcks false
par Scenario.node[0].nic.mac1609_4 frameErrorRate 0
par Scenario.node[0].nic.mac1609_4 ackErrorRate 0
scalar Scenario.node[0].nic.mac1609_4 ReceivedUnicastPackets 0
scalar Scenario.node[0].nic.mac1609_4 ReceivedBroadcasts 25597
scalar Scenario.node[0].nic.mac1609_4 SentPackets 999
scalar Scenario.node[0].nic.mac1609_4 SentAcknowledgements 0
scalar Scenario.node[0].nic.mac1609_4 RetriesExceeded 0
scalar Scenario.node[0].nic.mac1609_4 SNIRLostPackets 436
scalar Scenario.node[0].nic.mac1609_4 RXTXLostPackets 0
scalar Scenario.node[0].nic.mac1609_4 TotalLostPackets 436
scalar Scenario.node[0].nic.mac1609_4 DroppedPacketsInMac 0
scalar Scenario.node[0].nic.mac1609_4 TooLittleTime 0
scalar Scenario.node[0].nic.mac1609_4 TimesIntoBackoff 1265
scalar Scenario.node[0].nic.mac1609_4 SlotsBackoff 1889
scalar Scenario.node[0].nic.mac1609_4 NumInternalContention 0
scalar Scenario.node[0].nic.mac1609_4 totalBusyTime 2.803418203281
scalar Scenario.node[0].nic.mac1609_4 retriesExceeded:count 0
attr recordingmode count
attr source org_car2x_veins_modules_mac_sigRetriesExceeded
scalar Scenario.node[0].nic.mac1609_4 sentAcks:count 0
attr recordingmode count
attr source org_car2x_veins_modules_mac_sigSentAck
scalar Scenario.node[0].nic.mac1609_4 sentPackets:count 999
attr recordingmode count
attr source org_car2x_veins_modules_mac_sigSentPacket
scalar Scenario.node[0].nic.mac1609_4 collisions:count 0
attr recordingmode count
attr source org_car2x_veins_modules_mac_sigCollision
scalar Scenario.node[0].nic.mac1609_4 channelBusy:timeavg 0.028062244277087
attr recordingmode timeavg
attr source org_car2x_veins_modules_mac_sigChannelBusy
par Scenario.node[0].nic typename "\"org.car2x.veins.modules.nic.Nic80211p\""
par Scenario.node[0].nic connectionManagerName "\"connectionManager\""
par Scenario.node[0].veinsmobility typename "\"org.car2x.veins.modules.mobility.traci.TraCIMobility\""
par Scenario.node[0].veinsmobility notAffectedByHostState true
par Scenario.node[0].veinsmobility x 0
par Scenario.node[0].veinsmobility y 0
par Scenario.node[0].veinsmobility z 1.895
par Scenario.node[0].veinsmobility xOrientation 1
par Scenario.node[0].veinsmobility yOrientation 0
par Scenario.node[0].veinsmobility zOrientation 0
par Scenario.node[0].veinsmobility hostPositionOffset 0m
attr unit m
par Scenario.node[0].veinsmobility setHostSpeed false
par Scenario.node[0].veinsmobility accidentCount 0
par Scenario.node[0].veinsmobility accidentStart 30.3112s
attr unit s
par Scenario.node[0].veinsmobility accidentDuration "uniform(30s, 60s)"
attr unit s
par Scenario.node[0].veinsmobility accidentInterval "uniform(30s, 60s)"
attr unit s
scalar Scenario.node[0].veinsmobility startTime 0.1
scalar Scenario.node[0].veinsmobility totalTime 99.9
scalar Scenario.node[0].veinsmobility stopTime 100
scalar Scenario.node[0].veinsmobility minSpeed 0.25799588305899
scalar Scenario.node[0].veinsmobility maxSpeed 19.794584109678
scalar Scenario.node[0].veinsmobility totalDistance 1567.80361952
scalar Scenario.node[0].veinsmobility totalCO2Emission 332.324753805
par Scenario.node[0] typename "\"org.car2x.veins.nodes.Car\""
par Scenario.node[0] applType "\"TraCIDemo11p\""
par Scenario.node[0] nicType "\"Nic80211p\""
par Scenario.node[0] veinsmobilityType "\"org.car2x.veins.modules.mobility.traci.TraCIMobility\""
par Scenario.node[4].appl typename "\"org.car2x.veins.modules.application.traci.TraCIDemo11p\""
par Scenario.node[4].appl headerLength 80bit
attr unit bit
par Scenario.node[4].appl sendBeacons true
par Scenario.node[4].appl beaconLengthBits 256bit
attr unit bit
par Scenario.node[4].appl beaconUserPriority 7
par Scenario.node[4].appl beaconInterval 0.1s
attr unit s
par Scenario.node[4].appl dataLengthBits 1024bit
attr unit bit
par Scenario.node[4].appl dataOnSch false
par Scenario.node[4].appl dataUserPriority 7
par Scenario.node[4].appl avoidBeaconSynchronization true
par Scenario.node[4].appl sendWSA false
par Scenario.node[4].appl wsaLengthBits 250bit
attr unit bit
par Scenario.node[4].appl wsaInterval 1s
attr unit s
scalar Scenario.node[4].appl generatedWSMs 0
scalar Scenario.node[4].appl receivedWSMs 0
scalar Scenario.node[4].appl generatedBSMs 947
scalar Scenario.node[4].appl receivedBSMs 23695
scalar Scenario.node[4].appl generatedWSAs 0
scalar Scenario.node[4].appl receivedWSAs 0
par Scenario.node[4].nic.phy80211p typename "\"org.car2x.veins.modules.phy.PhyLayer80211p\""
par Scenario.node[4].nic.phy80211p recordStats false
par Scenario.node[4].nic.phy80211p usePropagationDelay true
par Scenario.node[4].nic.phy80211p noiseFloor -98dBm
attr unit dBm
par Scenario.node[4].nic.phy80211p useNoiseFloor true
par Scenario.node[4].nic.phy80211p antenna "<root>...</root> at content:1"
par Scenario.node[4].nic.phy80211p antennaOffsetX 0m
attr unit m
par Scenario.node[4].nic.phy80211p antennaOffsetY 0m
attr unit m
par Scenario.node[4].nic.phy80211p antennaOffsetZ 1.895m
attr unit m
par Scenario.node[4].nic.phy80211p antennaOffsetYaw 0rad
attr unit rad
par Scenario.node[4].nic.phy80211p analogueModels "<root>...</root> at /home/vagrant/spe-homework-project/Project/simulations//config_2.xml:2"
par Scenario.node[4].nic.phy80211p decider "<root>...</root> at /home/vagrant/spe-homework-project/Project/simulations//config_2.xml:2"
par Scenario.node[4].nic.phy80211p minPowerLevel -110dBm
attr unit dBm
par Scenario.node[4].nic.phy80211p timeRXToTX 0s
attr unit s
par Scenario.node[4].nic.phy80211p timeRXToSleep 0s
attr unit s
par Scenario.node[4].nic.phy80211p timeTXToRX 0s
attr unit s
par Scenario.node[4].nic.phy80211p timeTXToSleep 0s
attr unit s
par Scenario.node[4].nic.phy80211p timeSleepToRX 0s
attr unit s
par Scenario.node[4].nic.phy80211p timeSleepToTX 0s
attr unit s
par Scenario.node[4].nic.phy80211p initialRadioState 0
par Scenario.node[4].nic.phy80211p radioMinAtt 1
par Scenario.node[4].nic.phy80211p radioMaxAtt 0
par Scenario.node[4].nic.phy80211p nbRadioChannels 1
par Scenario.node[4].nic.phy80211p initialRadioChannel 0
par Scenario.node[4].nic.phy80211p ccaThreshold -65dBm
attr unit dBm
par Scenario.node[4].nic.phy80211p collectCollisionStatistics false
par Scenario.node[4].nic.phy80211p allowTxDuringRx false
scalar Scenario.node[4].nic.phy80211p busyTime 0.026540316789867
par Scenario.node[4].nic.mac1609_4 typename "\"org.car2x.veins.modules.mac.ieee80211p.Mac1609_4\""
par Scenario.node[4].nic.mac1609_4 notAffectedByHostState false
par Scenario.node[4].nic.mac1609_4 headerLength 0bit
attr unit bit
par Scenario.node[4].nic.mac1609_4 address "\"auto\""
par Scenario.node[4].nic.mac1609_4 useServiceChannel false
par Scenario.node[4].nic.mac1609_4 serviceChannel 1
par Scenario.node[4].nic.mac1609_4 bitrate 6000000bps
attr unit bps
par Scenario.node[4].nic.mac1609_4 syncOffset 0.0003s
attr unit s
par Scenario.node[4].nic.mac1609_4 txPower 20mW
attr unit mW
par Scenario.node[4].nic.mac1609_4 queueSize 0
par Scenario.node[4].nic.mac1609_4 dot11RTSThreshold 12000bit
attr unit bit
par Scenario.node[4].nic.mac1609_4 dot11ShortRetryLimit 7
par Scenario.node[4].nic.mac1609_4 dot11LongRetryLimit 4
par Scenario.node[4].nic.mac1609_4 ackLength 112bit
attr unit bit
par Scenario.node[4].nic.mac1609_4 useAcks false
par Scenario.node[4].nic.mac1609_4 frameErrorRate 0
par Scenario.node[4].nic.mac1609_4 ackErrorRate 0
scalar Scenario.node[4].nic.mac1609_4 ReceivedUnicastPackets 0
scalar Scenario.node[4].nic.mac1609_4 ReceivedBroadcasts 23695
scalar Scenario.node[4].nic.mac1609_4 SentPackets 947
scalar Scenario.node[4].nic.mac1609_4 SentAcknowledgements 0
scalar Scenario.node[4].nic.mac1609_4 RetriesExceeded 0
scalar Scenario.node[4].nic.mac1609_4 SNIRLostPackets 472
scalar Scenario.node[4].nic.mac1609_4 RXTXLostPackets 0
scalar Scenario.node[4].nic.mac1609_4 TotalLostPackets 472
scalar Scenario.node[4].nic.mac1609_4 DroppedPacketsInMac 0
scalar Scenario.node[4].nic.mac1609_4 TooLittleTime 0
scalar Scenario.node[4].nic.mac1609_4 TimesIntoBackoff 947
scalar Scenario.node[4].nic.mac1609_4 SlotsBackoff 1432
scalar Scenario.node[4].nic.mac1609_4 NumInternalContention 0
scalar Scenario.node[4].nic.mac1609_4 totalBusyTime 2.605146569591
scalar Scenario.node[4].nic.mac1609_4 retriesExceeded:count 0
attr recordingmode count
attr source org_car2x_veins_modules_mac_sigRetriesExceeded
scalar Scenario.node[4].nic.mac1609_4 sentAcks:count 0
attr recordingmode count
attr source org_car2x_veins_modules_mac_sigSentAck
scalar Scenario.node[4].nic.mac1609_4 sentPackets:count 947
attr recordingmode count
attr source org_car2x_veins_modules_mac_sigSentPacket
scalar Scenario.node[4].nic.mac1609_4 collisions:count 0
attr recordingmode count
attr source org_car2x_veins_modules_mac_sigCollision
scalar Scenario.node[4].nic.mac1609_4 channelBusy:timeavg 0.027509467471924
attr recordingmode timeavg
attr source org_car2x_veins_modules_mac_sigChannelBusy
par Scenario.node[4].nic typename "\"org.car2x.veins.modules.nic.Nic80211p\""
par Scenario.node[4].nic connectionManagerName "\"connectionManager\""
par Scenario.node[4].veinsmobility typename "\"org.car2x.veins.modules.mobility.traci.TraCIMobility\""
par Scenario.node[4].veinsmobility notAffectedByHostState true
par Scenario.node[4].veinsmobility x 0
par Scenario.node[4].veinsmobility y 0
par Scenario.node[4].veinsmobility z 1.895
par Scenario.node[4].veinsmobility xOrientation 1
par Scenario.node[4].veinsmobility yOrientation 0
par Scenario.node[4].veinsmobility zOrientation 0
par Scenario.node[4].veinsmobility hostPositionOffset 0m
attr unit m
par Scenario.node[4].veinsmobility setHostSpeed false
par Scenario.node[4].veinsmobility accidentCount 0
par Scenario.node[4].veinsmobility accidentStart 50.8377s
attr unit s
par Scenario.node[4].veinsmobility accidentDuration "uniform(30s, 60s)"
attr unit s
par Scenario.node[4].veinsmobility accidentInterval "uniform(30s, 60s)"
attr unit s
scalar Scenario.node[4].veinsmobility startTime 5.3
scalar Scenario.node[4].veinsmobility totalTime 94.7
scalar Scenario.node[4].veinsmobility stopTime 100
scalar Scenario.node[4].veinsmobility minSpeed 0.2547917889026
scalar Scenario.node[4].veinsmobility maxSpeed 13.481078062193
scalar Scenario.node[4].veinsmobility totalDistance 1140.1338817215
scalar Scenario.node[4].veinsmobility totalCO2Emission 250.73323318173
par Scenario.node[4] typename "\"org.car2x.veins.nodes.Car\""
par Scenario.node[4] applType "\"TraCIDemo11p\""
par Scenario.node[4] nicType "\"Nic80211p\""
par Scenario.node[4] veinsmobilityType "\"org.car2x.veins.modules.mobility.traci.TraCIMobility\""
par Scenario.node[5].appl typename "\"org.car2x.veins.modules.application.traci.TraCIDemo11p\""
par Scenario.node[5].appl headerLength 80bit
attr unit bit
par Scenario.node[5].appl sendBeacons true
par Scenario.node[5].appl beaconLengthBits 256bit
attr unit bit
par Scenario.node[5].appl beaconUserPriority 7
par Scenario.node[5].appl beaconInterval 0.1s
attr unit s
par Scenario.node[5].appl dataLengthBits 1024bit
attr unit bit
par Scenario.node[5].appl dataOnSch false
par Scenario.node[5].appl dataUserPriority 7
par Scenario.node[5].appl avoidBeaconSynchronization true
par Scenario.node[5].appl sendWSA false
par Scenario.node[5].appl wsaLengthBits 250bit
attr unit bit
par Scenario.node[5].appl wsaInterval 1s
attr unit s
scalar Scenario.node[5].appl generatedWSMs 0
scalar Scenario.node[5].appl receivedWSMs 0
scalar Scenario.node[5].appl generatedBSMs 933
scalar Scenario.node[5].appl receivedBSMs 23763
scalar Scenario.node[5].appl generatedWSAs 0
scalar Scenario.node[5].appl receivedWSAs 0
par Scenario.node[5].nic.phy80211p typename "\"org.car2x.veins.modules.phy.PhyLayer80211p\""
par Scenario.node[5].nic.phy80211p recordStats false
par Scenario.node[5].nic.phy80211p usePropagationDelay true
par Scenario.node[5].nic.phy80211p noiseFloor -98dBm
attr unit dBm
par Scenario.node[5].nic.phy80211p useNoiseFloor true
par Scenario.node[5].nic.phy80211p antenna "<root>...</root> at content:1"
par Scenario.node[5].nic.phy80211p antennaOffsetX 0m
attr unit m
par Scenario.node[5].nic.phy80211p antennaOffsetY 0m
attr unit m
par Scenario.node[5].nic.phy80211p antennaOffsetZ 1.895m
attr unit m
par Scenario.node[5].nic.phy80211p antennaOffsetYaw 0rad
attr unit rad
par Scenario.node[5].nic.phy80211p analogueModels "<root>...</root> at /home/vagrant/spe-homework-project/Project/simulations//config_2.xml:2"
par Scenario.node[5].nic.phy80211p decider "<root>...</root> at /home/vagrant/spe-homework-project/Project/simulations//config_2.xml:2"
par Scenario.node[5].nic.phy80211p minPowerLevel -110dBm
attr unit dBm
par Scenario.node[5].nic.phy80211p timeRXToTX 0s
attr unit s
par Scenario.node[5].nic.phy80211p timeRXToSleep 0s
attr unit s
par Scenario.node[5].nic.phy80211p timeTXToRX 0s
attr unit s
par Scenario.node[5].nic.phy80211p timeTXToSleep 0s
attr unit s
par Scenario.node[5].nic.phy80211p timeSleepToRX 0s
attr unit s
par Scenario.node[5].nic.phy80211p timeSleepToTX 0s
attr unit s
par Scenario.node[5].nic.phy80211p initialRadioState 0
par Scenario.node[5].nic.phy80211p radioMinAtt 1
par Scenario.node[5].nic.phy80211p radioMaxAtt 0
par Scenario.node[5].nic.phy80211p nbRadioChannels 1
par Scenario.node[5].nic.phy80211p initialRadioChannel 0
par Scenario.node[5].nic.phy80211p ccaThreshold -65dBm
attr unit dBm
par Scenario.node[5].nic.phy80211p collectCollisionStatistics false
par Scenario.node[5].nic.phy80211p allowTxDuringRx false
scalar Scenario.node[5].nic.phy80211p busyTime 0.026691103965706
par Scenario.node[5].nic.mac1609_4 typename "\"org.car2x.veins.modules.mac.ieee80211p.Mac1609_4\""
par Scenario.node[5].nic.mac1609_4 notAffectedByHostState false
par Scenario.node[5].nic.mac1609_4 headerLength 0bit
attr unit bit
par Scenario.node[5].nic.mac1609_4 address "\"auto\""
par Scenario.node[5].nic.mac1609_4 useServiceChannel false
par Scenario.node[5].nic.mac1609_4 serviceChannel 1
par Scenario.node[5].nic.mac1609_4 bitrate 6000000bps
attr unit bps
par Scenario.node[5].nic.mac1609_4 syncOffset 0.0003s
attr unit s
par Scenario.node[5].nic.mac1609_4 txPower 20mW
attr unit mW
par Scenario.node[5].nic.mac1609_4 queueSize 0
par Scenario.node[5].nic.mac1609_4 dot11RTSThreshold 12000bit
attr unit bit
par Scenario.node[5].nic.mac1609_4 dot11ShortRetryLimit 7
par Scenario.node[5].nic.mac1609_4 dot11LongRetryLimit 4
par Scenario.node[5].nic.mac1609_4 ackLength 112bit
attr unit bit
par Scenario.node[5].nic.mac1609_4 useAcks false
par Scenario.node[5].nic.mac1609_4 frameErrorRate 0
par Scenario.node[5].nic.mac1609_4 ackErrorRate 0
scalar Scenario.node[5].nic.mac1609_4 ReceivedUnicastPackets 0
scalar Scenario.node[5].nic.mac1609_4 ReceivedBroadcasts 23763
scalar Scenario.node[5].nic.mac1609_4 SentPackets 933
scalar Scenario.node[5].nic.mac1609_4 SentAcknowledgements 0
scalar Scenario.node[5].nic.mac1609_4 RetriesExceeded 0
scalar Scenario.node[5].nic.mac1609_4 SNIRLostPackets 182
scalar Scenario.node[5].nic.mac1609_4 RXTXLostPackets 0
scalar Scenario.node[5].nic.mac1609_4 TotalLostPackets 182
scalar Scenario.node[5].nic.mac1609_4 DroppedPacketsInMac 0
scalar Scenario.node[5].nic.mac1609_4 TooLittleTime 0
scalar Scenario.node[5].nic.mac1609_4 TimesIntoBackoff 933
scalar Scenario.node[5].nic.mac1609_4 SlotsBackoff 1382
scalar Scenario.node[5].nic.mac1609_4 NumInternalContention 0
scalar Scenario.node[5].nic.mac1609_4 totalBusyTime 2.583752111619
scalar Scenario.node[5].nic.mac1609_4 retriesExceeded:count 0
attr recordingmode count
attr source org_car2x_veins_modules_mac_sigRetriesExceeded
scalar Scenario.node[5].nic.mac1609_4 sentAcks:count 0
attr recordingmode count
attr source org_car2x_veins_modules_mac_sigSentAck
scalar Scenario.node[5].nic.mac1609_4 sentPackets:count 933
attr recordingmode count
attr source org_car2x_veins_modules_mac_sigSentPacket
scalar Scenario.node[5].nic.mac1609_4 collisions:count 0
attr recordingmode count
attr source org_car2x_veins_modules_mac_sigCollision
scalar Scenario.node[5].nic.mac1609_4 channelBusy:timeavg 0.027692948677592
attr recordingmode timeavg
attr source org_car2x_veins_modules_mac_sigChannelBusy
par Scenario.node[5].nic typename "\"org.car2x.veins.modules.nic.Nic80211p\""
par Scenario.node[5].nic connectionManagerName "\"connectionManager\""
par Scenario.node[5].veinsmobility typename "\"org.car2x.veins.modules.mobility.traci.TraCIMobility\""
par Scenario.node[5].veinsmobility notAffectedByHostState true
par Scenario.node[5].veinsmobility x 0
par Scenario.node[5].veinsmobility y 0
par Scenario.node[5].veinsmobility z 1.895
par Scenario.node[5].veinsmobility xOrientation 1
par Scenario.node[5].veinsmobility yOrientation 0
par Scenario.node[5].veinsmobility zOrientation 0
par Scenario.node[5].veinsmobility hostPositionOffset 0m
attr unit m
par Scenario.node[5].veinsmobility setHostSpeed false
par Scenario.node[5].veinsmobility accidentCount 0
par Scenario.node[5].veinsmobility accidentStart 53.4199s
attr unit s
par Scenario.node[5].veinsmobility accidentDuration "uniform(30s, 60s)"
attr unit s
par Scenario.node[5].veinsmobility accidentInterval "uniform(30s, 60s)"
attr unit s
scalar Scenario.node[5].veinsmobility startTime 6.7
scalar Scenario.node[5].veinsmobility totalTime 93.3
scalar Scenario.node[5].veinsmobility stopTime 100
scalar Scenario.node[5].veinsmobility minSpeed 0.25908970359387
scalar Scenario.node[5].veinsmobility maxSpeed 13.324152678555
scalar Scenario.node[5].veinsmobility totalDistance 1147.707439971
scalar Scenario.node[5].veinsmobility totalCO2Emission 238.88656230465
par Scenario.node[5] typename "\"org.car2x.veins.nodes.Car\""
par Scenario.node[5] applType "\"TraCIDemo11p\""
par Scenario.node[5] nicType "\"Nic80211p\""
par Scenario.node[5] veinsmobilityType "\"org.car2x.veins.modules.mobility.traci.TraCIMobility\""
par Scenario.node[6].appl typename "\"org.car2x.veins.modules.application.traci.TraCIDemo11p\""
par Scenario.node[6].appl headerLength 80bit
attr unit bit
par Scenario.node[6].appl sendBeacons true
par Scenario.node[6].appl beaconLengthBits 256bit
attr unit bit
par Scenario.node[6].appl beaconUserPriority 7
par Scenario.node[6].appl beaconInterval 0.1s
attr unit s
par Scenario.node[6].appl dataLengthBits 1024bit
attr unit bit
par Scenario.node[6].appl dataOnSch false
par Scenario.node[6].appl dataUserPriority 7
par Scenario.node[6].appl avoidBeaconSynchronization true
par Scenario.node[6].appl sendWSA false
par Scenario.node[6].appl wsaLengthBits 250bit
attr unit bit
par Scenario.node[6].appl wsaInterval 1s
attr unit s
scalar Scenario.node[6].appl generatedWSMs 0
scalar Scenario.node[6].appl receivedWSMs 0
scalar Scenario.node[6].appl generatedBSMs 921
scalar Scenario.node[6].appl receivedBSMs 25668
scalar Scenario.node[6].appl generatedWSAs 0
scalar Scenario.node[6].appl receivedWSAs 0
par Scenario.node[6].nic.phy80211p typename "\"org.car2x.veins.modules.phy.PhyLayer80211p\""
par Scenario.node[6].nic.phy80211p recordStats false
par Scenario.node[6].nic.phy80211p usePropagationDelay true
par Scenario.node[6].nic.phy80211p noiseFloor -98dBm
attr unit dBm
par Scenario.node[6].nic.phy80211p useNoiseFloor true
par Scenario.node[6].nic.phy80211p antenna "<root>...</root> at content:1"
par Scenario.node[6].nic.phy80211p antennaOffsetX 0m
attr unit m
par Scenario.node[6].nic.phy80211p antennaOffsetY 0m
attr unit m
par Scenario.node[6].nic.phy80211p antennaOffsetZ 1.895m
attr unit m
par Scenario.node[6].nic.phy80211p antennaOffsetYaw 0rad
attr unit rad
par Scenario.node[6].nic.phy80211p analogueModels "<root>...</root> at /home/vagrant/spe-homework-project/Project/simulations//config_2.xml:2"
par Scenario.node[6].nic.phy80211p decider "<root>...</root> at /home/vagrant/spe-homework-project/Project/simulations//config_2.xml:2"
par Scenario.node[6].nic.phy80211p minPowerLevel -110dBm
attr unit dBm
par Scenario.node[6].nic.phy80211p timeRXToTX 0s
attr unit s
par Scenario.node[6].nic.phy80211p timeRXToSleep 0s
attr unit s
par Scenario.node[6].nic.phy80211p timeTXToRX 0s
attr unit s
par Scenario.node[6].nic.phy80211p timeTXToSleep 0s
attr unit s
par Scenario.node[6].nic.phy80211p timeSleepToRX 0s
attr unit s
par Scenario.node[6].nic.phy80211p timeSleepToTX 0s
attr unit s
par Scenario.node[6].nic.phy80211p initialRadioState 0
par Scenario.node[6].nic.phy80211p radioMinAtt 1
par Scenario.node[6].nic.phy80211p radioMaxAtt 0
par Scenario.node[6].nic.phy80211p nbRadioChannels 1
par Scenario.node[6].nic.phy80211p initialRadioChannel 0
par Scenario.node[6].nic.phy80211p ccaThreshold -65dBm
attr unit dBm
par Scenario.node[6].nic.phy80211p collectCollisionStatistics false
par Scenario.node[6].nic.phy80211p allowTxDuringRx false
scalar Scenario.node[6].nic.phy80211p busyTime 0.029817850162868
par Scenario.node[6].nic.mac1609_4 typename "\"org.car2x.veins.modules.mac.ieee80211p.Mac1609_4\""
par Scenario.node[6].nic.mac1609_4 notAffectedByHostState false
par Scenario.node[6].nic.mac1609_4 headerLength 0bit
attr unit bit
par Scenario.node[6].nic.mac1609_4 address "\"auto\""
par Scenario.node[6].nic.mac1609_4 useServiceChannel false
par Scenario.node[6].nic.mac1609_4 serviceChannel 1
par Scenario.node[6].nic.mac1609_4 bitrate 6000000bps
attr unit bps
par Scenario.node[6].nic.mac1609_4 syncOffset 0.0003s
attr unit s
par Scenario.node[6].nic.mac1609_4 txPower 20mW
attr unit mW
par Scenario.node[6].nic.mac1609_4 queueSize 0
par Scenario.node[6].nic.mac1609_4 dot11RTSThreshold 12000bit
attr unit bit
par Scenario.node[6].nic.mac1609_4 dot11ShortRetryLimit 7
par Scenario.node[6].nic.mac1609_4 dot11LongRetryLimit 4
par Scenario.node[6].nic.mac1609_4 ackLength 112bit
attr unit bit
par Scenario.node[6].nic.mac1609_4 useAcks false
par Scenario.node[6].nic.mac1609_4 frameErrorRate 0
par Scenario.node[6].nic.mac1609_4 ackErrorRate 0
scalar Scenario.node[6].nic.mac1609_4 ReceivedUnicastPackets 0
scalar Scenario.node[6].nic.mac1609_4 ReceivedBroadcasts 25668
scalar Scenario.node[6].nic.mac1609_4 SentPackets 921
scalar Scenario.node[6].nic.mac1609_4 SentAcknowledgements 0
scalar Scenario.node[6].nic.mac1609_4 RetriesExceeded 0
scalar Scenario.node[6].nic.mac1609_4 SNIRLostPackets 738
scalar Scenario.node[6].nic.mac1609_4 RXTXLostPackets 0
scalar Scenario.node[6].nic.mac1609_4 TotalLostPackets 738
scalar Scenario.node[6].nic.mac1609_4 DroppedPacketsInMac 0
scalar Scenario.node[6].nic.mac1609_4 TooLittleTime 0
scalar Scenario.node[6].nic.mac1609_4 TimesIntoBackoff 921
scalar Scenario.node[6].nic.mac1609_4 SlotsBackoff 1418
scalar Scenario.node[6].nic.mac1609_4 NumInternalContention 0
scalar Scenario.node[6].nic.mac1609_4 totalBusyTime 2.828309466988
scalar Scenario.node[6].nic.mac1609_4 retriesExceeded:count 0
attr recordingmode count
attr source org_car2x_veins_modules_mac_sigRetriesExceeded
scalar Scenario.node[6].nic.mac1609_4 sentAcks:count 0
attr recordingmode count
attr source org_car2x_veins_modules_mac_sigSentAck
scalar Scenario.node[6].nic.mac1609_4 sentPackets:count 921
attr recordingmode count
attr source org_car2x_veins_modules_mac_sigSentPacket
scalar Scenario.node[6].nic.mac1609_4 collisions:count 0
attr recordingmode count
attr source org_car2x_veins_modules_mac_sigCollision
scalar Scenario.node[6].nic.mac1609_4 channelBusy:timeavg 0.030709114733854
attr recordingmode timeavg
attr source org_car2x_veins_modules_mac_sigChannelBusy
par Scenario.node[6].nic typename "\"org.car2x.veins.modules.nic.Nic80211p\""
par Scenario.node[6].nic connectionManagerName "\"connectionManager\""
par Scenario.node[6].veinsmobility typename "\"org.car2x.veins.modules.mobility.traci.TraCIMobility\""
par Scenario.node[6].veinsmobility notAffectedByHostState true
par Scenario.node[6].veinsmobility x 0
par Scenario.node[6].veinsmobility y 0
par Scenario.node[6].veinsmobility z 1.895
par Scenario.node[6].veinsmobility xOrientation 1
par Scenario.node[6].veinsmobility yOrientation 0
par Scenario.node[6].veinsmobility zOrientation 0
par Scenario.node[6].veinsmobility hostPositionOffset 0m
attr unit m
par Scenario.node[6].veinsmobility setHostSpeed false
par Scenario.node[6].veinsmobility accidentCount 0
par Scenario.node[6].veinsmobility accidentStart 57.92s
attr unit s
par Scenario.node[6].veinsmobility accidentDuration "uniform(30s, 60s)"
attr unit s
par Scenario.node[6].veinsmobility accidentInterval "uniform(30s, 60s)"
attr unit s
scalar Scenario.node[6].veinsmobility startTime 7.9
scalar Scenario.node[6].veinsmobility totalTime 92.1
scalar Scenario.node[6].veinsmobility stopTime 100
scalar Scenario.node[6].veinsmobility minSpeed 0.25831785432529
scalar Scenario.node[6].veinsmobility maxSpeed 10.881204797368
scalar Scenario.node[6].veinsmobility totalDistance 968.82935745608
scalar Scenario.node[6].veinsmobility totalCO2Emission 196.13410330461
par Scenario.node[6] typename "\"org.car2x.veins.nodes.Car\""
par Scenario.node[6] applType "\"TraCIDemo11p\""
par Scenario.node[6] nicType "\"Nic80211p\""
par Scenario.node[6] veinsmobilityType "\"org.car2x.veins.modules.mobility.traci.TraCIMobility\""
par Scenario.node[8].appl typename "\"org.car2x.veins.modules.application.traci.TraCIDemo11p\""
par Scenario.node[8].appl headerLength 80bit
attr unit bit
par Scenario.node[8].appl sendBeacons true
par Scenario.node[8].appl beaconLengthBits 256bit
attr unit bit
par Scenario.node[8].appl beaconUserPriority 7
par Scenario.node[8].appl beaconInterval 0.1s
attr unit s
par Scenario.node[8].appl dataLengthBits 1024bit
attr unit bit
par Scenario.node[8].appl dataOnSch false
par Scenario.node[8].appl dataUserPriority 7
par Scenario.node[8].appl avoidBeaconSynchronization true
par Scenario.node[8].appl sendWSA false
par Scenario.node[8].appl wsaLengthBits 250bit
attr unit bit
par Scenario.node[8].appl wsaInterval 1s
attr unit s
scalar Scenario.node[8].appl generatedWSMs 0
scalar Scenario.node[8].appl receivedWSMs 0
scalar Scenario.node[8].appl generatedBSMs 895
scalar Scenario.node[8].appl receivedBSMs 25917
scalar Scenario.node[8].appl generatedWSAs 0
scalar Scenario.node[8].appl receivedWSAs 0
par Scenario.node[8].nic.phy80211p typename "\"org.car2x.veins.modules.phy.PhyLayer80211p\""
par Scenario.node[8].nic.phy80211p recordStats false
par Scenario.node[8].nic.phy80211p usePropagationDelay true
par Scenario.node[8].nic.phy80211p noiseFloor -98dBm
attr unit dBm
par Scenario.node[8].nic.phy80211p useNoiseFloor true
par Scenario.node[8].nic.phy80211p antenna "<root>...</root> at content:1"
par Scenario.node[8].nic.phy80211p antennaOffsetX 0m
attr unit m
par Scenario.node[8].nic.phy80211p antennaOffsetY 0m
attr unit m
par Scenario.node[8].nic.phy80211p antennaOffsetZ 1.895m
attr unit m
par Scenario.node[8].nic.phy80211p antennaOffsetYaw 0rad
attr unit rad
par Scenario.node[8].nic.phy80211p analogueModels "<root>...</root> at /home/vagrant/spe-homework-project/Project/simulations//config_2.xml:2"
par Scenario.node[8].nic.phy80211p decider "<root>...</root> at /home/vagrant/spe-homework-project/Project/simulations//config_2.xml:2"
par Scenario.node[8].nic.phy80211p minPowerLevel -110dBm
attr unit dBm
par Scenario.node[8].nic.phy80211p timeRXToTX 0s
attr unit s
par Scenario.node[8].nic.phy80211p timeRXToSleep 0s
attr unit s
par Scenario.node[8].nic.phy80211p timeTXToRX 0s
attr unit s
par Scenario.node[8].nic.phy80211p timeTXToSleep 0s
attr unit s
par Scenario.node[8].nic.phy80211p timeSleepToRX 0s
attr unit s
par Scenario.node[8].nic.phy80211p timeSleepToTX 0s
attr unit s
par Scenario.node[8].nic.phy80211p initialRadioState 0
par Scenario.node[8].nic.phy80211p radioMinAtt 1
par Scenario.node[8].nic.phy80211p radioMaxAtt 0
par Scenario.node[8].nic.phy80211p nbRadioChannels 1
par Scenario.node[8].nic.phy80211p initialRadioChannel 0
par Scenario.node[8].nic.phy80211p ccaThreshold -65dBm
attr unit dBm
par Scenario.node[8].nic.phy80211p collectCollisionStatistics false
par Scenario.node[8].nic.phy80211p allowTxDuringRx false
scalar Scenario.node[8].nic.phy80211p busyTime 0.030906011173185
par Scenario.node[8].nic.mac1609_4 typename "\"org.car2x.veins.modules.mac.ieee80211p.Mac1609_4\""
[...]
attr unit dBm
par Scenario.node[62].nic.phy80211p timeRXToTX 0s
attr unit s
par Scenario.node[62].nic.phy80211p timeRXToSleep 0s
attr unit s
par Scenario.node[62].nic.phy80211p timeTXToRX 0s
attr unit s
par Scenario.node[62].nic.phy80211p timeTXToSleep 0s
attr unit s
par Scenario.node[62].nic.phy80211p timeSleepToRX 0s
attr unit s
par Scenario.node[62].nic.phy80211p timeSleepToTX 0s
attr unit s
par Scenario.node[62].nic.phy80211p initialRadioState 0
par Scenario.node[62].nic.phy80211p radioMinAtt 1
par Scenario.node[62].nic.phy80211p radioMaxAtt 0
par Scenario.node[62].nic.phy80211p nbRadioChannels 1
par Scenario.node[62].nic.phy80211p initialRadioChannel 0
par Scenario.node[62].nic.phy80211p ccaThreshold -65dBm
attr unit dBm
par Scenario.node[62].nic.phy80211p collectCollisionStatistics false
par Scenario.node[62].nic.phy80211p allowTxDuringRx false
scalar Scenario.node[62].nic.phy80211p busyTime 0.033848533333333
par Scenario.node[62].nic.mac1609_4 typename "\"org.car2x.veins.modules.mac.ieee80211p.Mac1609_4\""
par Scenario.node[62].nic.mac1609_4 notAffectedByHostState false
par Scenario.node[62].nic.mac1609_4 headerLength 0bit
attr unit bit
par Scenario.node[62].nic.mac1609_4 address "\"auto\""
par Scenario.node[62].nic.mac1609_4 useServiceChannel false
par Scenario.node[62].nic.mac1609_4 serviceChannel 1
par Scenario.node[62].nic.mac1609_4 bitrate 6000000bps
attr unit bps
par Scenario.node[62].nic.mac1609_4 syncOffset 0.0003s
attr unit s
par Scenario.node[62].nic.mac1609_4 txPower 20mW
attr unit mW
par Scenario.node[62].nic.mac1609_4 queueSize 0
par Scenario.node[62].nic.mac1609_4 dot11RTSThreshold 12000bit
attr unit bit
par Scenario.node[62].nic.mac1609_4 dot11ShortRetryLimit 7
par Scenario.node[62].nic.mac1609_4 dot11LongRetryLimit 4
par Scenario.node[62].nic.mac1609_4 ackLength 112bit
attr unit bit
par Scenario.node[62].nic.mac1609_4 useAcks false
par Scenario.node[62].nic.mac1609_4 frameErrorRate 0
par Scenario.node[62].nic.mac1609_4 ackErrorRate 0
scalar Scenario.node[62].nic.mac1609_4 ReceivedUnicastPackets 0
scalar Scenario.node[62].nic.mac1609_4 ReceivedBroadcasts 2441
scalar Scenario.node[62].nic.mac1609_4 SentPackets 75
scalar Scenario.node[62].nic.mac1609_4 SentAcknowledgements 0
scalar Scenario.node[62].nic.mac1609_4 RetriesExceeded 0
scalar Scenario.node[62].nic.mac1609_4 SNIRLostPackets 0
scalar Scenario.node[62].nic.mac1609_4 RXTXLostPackets 0
scalar Scenario.node[62].nic.mac1609_4 TotalLostPackets 0
scalar Scenario.node[62].nic.mac1609_4 DroppedPacketsInMac 0
scalar Scenario.node[62].nic.mac1609_4 TooLittleTime 0
scalar Scenario.node[62].nic.mac1609_4 TimesIntoBackoff 75
scalar Scenario.node[62].nic.mac1609_4 SlotsBackoff 99
scalar Scenario.node[62].nic.mac1609_4 NumInternalContention 0
scalar Scenario.node[62].nic.mac1609_4 totalBusyTime 0.261739
scalar Scenario.node[62].nic.mac1609_4 retriesExceeded:count 0
attr recordingmode count
attr source org_car2x_veins_modules_mac_sigRetriesExceeded
scalar Scenario.node[62].nic.mac1609_4 sentAcks:count 0
attr recordingmode count
attr source org_car2x_veins_modules_mac_sigSentAck
scalar Scenario.node[62].nic.mac1609_4 sentPackets:count 75
attr recordingmode count
attr source org_car2x_veins_modules_mac_sigSentPacket
scalar Scenario.node[62].nic.mac1609_4 collisions:count 0
attr recordingmode count
attr source org_car2x_veins_modules_mac_sigCollision
scalar Scenario.node[62].nic.mac1609_4 channelBusy:timeavg 0.034898533333333
attr recordingmode timeavg
attr source org_car2x_veins_modules_mac_sigChannelBusy
par Scenario.node[62].nic typename "\"org.car2x.veins.modules.nic.Nic80211p\""
par Scenario.node[62].nic connectionManagerName "\"connectionManager\""
par Scenario.node[62].veinsmobility typename "\"org.car2x.veins.modules.mobility.traci.TraCIMobility\""
par Scenario.node[62].veinsmobility notAffectedByHostState true
par Scenario.node[62].veinsmobility x 0
par Scenario.node[62].veinsmobility y 0
par Scenario.node[62].veinsmobility z 1.895
par Scenario.node[62].veinsmobility xOrientation 1
par Scenario.node[62].veinsmobility yOrientation 0
par Scenario.node[62].veinsmobility zOrientation 0
par Scenario.node[62].veinsmobility hostPositionOffset 0m
attr unit m
par Scenario.node[62].veinsmobility setHostSpeed false
par Scenario.node[62].veinsmobility accidentCount 0
par Scenario.node[62].veinsmobility accidentStart 34.2195s
attr unit s
par Scenario.node[62].veinsmobility accidentDuration "uniform(30s, 60s)"
attr unit s
par Scenario.node[62].veinsmobility accidentInterval "uniform(30s, 60s)"
attr unit s
scalar Scenario.node[62].veinsmobility startTime 92.5
scalar Scenario.node[62].veinsmobility totalTime 7.5
scalar Scenario.node[62].veinsmobility stopTime 100
scalar Scenario.node[62].veinsmobility minSpeed 0.25398814343801
scalar Scenario.node[62].veinsmobility maxSpeed 14.885928297607
scalar Scenario.node[62].veinsmobility totalDistance 58.166773055622
scalar Scenario.node[62].veinsmobility totalCO2Emission 38.691380373888
par Scenario.node[62] typename "\"org.car2x.veins.nodes.Car\""
par Scenario.node[62] applType "\"TraCIDemo11p\""
par Scenario.node[62] nicType "\"Nic80211p\""
par Scenario.node[62] veinsmobilityType "\"org.car2x.veins.modules.mobility.traci.TraCIMobility\""
par Scenario.node[63].appl typename "\"org.car2x.veins.modules.application.traci.TraCIDemo11p\""
par Scenario.node[63].appl headerLength 80bit
attr unit bit
par Scenario.node[63].appl sendBeacons true
par Scenario.node[63].appl beaconLengthBits 256bit
attr unit bit
par Scenario.node[63].appl beaconUserPriority 7
par Scenario.node[63].appl beaconInterval 0.1s
attr unit s
par Scenario.node[63].appl dataLengthBits 1024bit
attr unit bit
par Scenario.node[63].appl dataOnSch false
par Scenario.node[63].appl dataUserPriority 7
par Scenario.node[63].appl avoidBeaconSynchronization true
par Scenario.node[63].appl sendWSA false
par Scenario.node[63].appl wsaLengthBits 250bit
attr unit bit
par Scenario.node[63].appl wsaInterval 1s
attr unit s
scalar Scenario.node[63].appl generatedWSMs 0
scalar Scenario.node[63].appl receivedWSMs 0
scalar Scenario.node[63].appl generatedBSMs 49
scalar Scenario.node[63].appl receivedBSMs 1593
scalar Scenario.node[63].appl generatedWSAs 0
scalar Scenario.node[63].appl receivedWSAs 0
par Scenario.node[63].nic.phy80211p typename "\"org.car2x.veins.modules.phy.PhyLayer80211p\""
par Scenario.node[63].nic.phy80211p recordStats false
par Scenario.node[63].nic.phy80211p usePropagationDelay true
par Scenario.node[63].nic.phy80211p noiseFloor -98dBm
attr unit dBm
par Scenario.node[63].nic.phy80211p useNoiseFloor true
par Scenario.node[63].nic.phy80211p antenna "<root>...</root> at content:1"
par Scenario.node[63].nic.phy80211p antennaOffsetX 0m
attr unit m
par Scenario.node[63].nic.phy80211p antennaOffsetY 0m
attr unit m
par Scenario.node[63].nic.phy80211p antennaOffsetZ 1.895m
attr unit m
par Scenario.node[63].nic.phy80211p antennaOffsetYaw 0rad
attr unit rad
par Scenario.node[63].nic.phy80211p analogueModels "<root>...</root> at /home/vagrant/spe-homework-project/Project/simulations//config_2.xml:2"
par Scenario.node[63].nic.phy80211p decider "<root>...</root> at /home/vagrant/spe-homework-project/Project/simulations//config_2.xml:2"
par Scenario.node[63].nic.phy80211p minPowerLevel -110dBm
attr unit dBm
par Scenario.node[63].nic.phy80211p timeRXToTX 0s
attr unit s
par Scenario.node[63].nic.phy80211p timeRXToSleep 0s
attr unit s
par Scenario.node[63].nic.phy80211p timeTXToRX 0s
attr unit s
par Scenario.node[63].nic.phy80211p timeTXToSleep 0s
attr unit s
par Scenario.node[63].nic.phy80211p timeSleepToRX 0s
attr unit s
par Scenario.node[63].nic.phy80211p timeSleepToTX 0s
attr unit s
par Scenario.node[63].nic.phy80211p initialRadioState 0
par Scenario.node[63].nic.phy80211p radioMinAtt 1
par Scenario.node[63].nic.phy80211p radioMaxAtt 0
par Scenario.node[63].nic.phy80211p nbRadioChannels 1
par Scenario.node[63].nic.phy80211p initialRadioChannel 0
par Scenario.node[63].nic.phy80211p ccaThreshold -65dBm
attr unit dBm
par Scenario.node[63].nic.phy80211p collectCollisionStatistics false
par Scenario.node[63].nic.phy80211p allowTxDuringRx false
scalar Scenario.node[63].nic.phy80211p busyTime 0.033810612244898
par Scenario.node[63].nic.mac1609_4 typename "\"org.car2x.veins.modules.mac.ieee80211p.Mac1609_4\""
par Scenario.node[63].nic.mac1609_4 notAffectedByHostState false
par Scenario.node[63].nic.mac1609_4 headerLength 0bit
attr unit bit
par Scenario.node[63].nic.mac1609_4 address "\"auto\""
par Scenario.node[63].nic.mac1609_4 useServiceChannel false
par Scenario.node[63].nic.mac1609_4 serviceChannel 1
par Scenario.node[63].nic.mac1609_4 bitrate 6000000bps
attr unit bps
par Scenario.node[63].nic.mac1609_4 syncOffset 0.0003s
attr unit s
par Scenario.node[63].nic.mac1609_4 txPower 20mW
attr unit mW
par Scenario.node[63].nic.mac1609_4 queueSize 0
par Scenario.node[63].nic.mac1609_4 dot11RTSThreshold 12000bit
attr unit bit
par Scenario.node[63].nic.mac1609_4 dot11ShortRetryLimit 7
par Scenario.node[63].nic.mac1609_4 dot11LongRetryLimit 4
par Scenario.node[63].nic.mac1609_4 ackLength 112bit
attr unit bit
par Scenario.node[63].nic.mac1609_4 useAcks false
par Scenario.node[63].nic.mac1609_4 frameErrorRate 0
par Scenario.node[63].nic.mac1609_4 ackErrorRate 0
scalar Scenario.node[63].nic.mac1609_4 ReceivedUnicastPackets 0
scalar Scenario.node[63].nic.mac1609_4 ReceivedBroadcasts 1593
scalar Scenario.node[63].nic.mac1609_4 SentPackets 49
scalar Scenario.node[63].nic.mac1609_4 SentAcknowledgements 0
scalar Scenario.node[63].nic.mac1609_4 RetriesExceeded 0
scalar Scenario.node[63].nic.mac1609_4 SNIRLostPackets 0
scalar Scenario.node[63].nic.mac1609_4 RXTXLostPackets 0
scalar Scenario.node[63].nic.mac1609_4 TotalLostPackets 0
scalar Scenario.node[63].nic.mac1609_4 DroppedPacketsInMac 0
scalar Scenario.node[63].nic.mac1609_4 TooLittleTime 0
scalar Scenario.node[63].nic.mac1609_4 TimesIntoBackoff 49
scalar Scenario.node[63].nic.mac1609_4 SlotsBackoff 78
scalar Scenario.node[63].nic.mac1609_4 NumInternalContention 0
scalar Scenario.node[63].nic.mac1609_4 totalBusyTime 0.170817
scalar Scenario.node[63].nic.mac1609_4 retriesExceeded:count 0
attr recordingmode count
attr source org_car2x_veins_modules_mac_sigRetriesExceeded
scalar Scenario.node[63].nic.mac1609_4 sentAcks:count 0
attr recordingmode count
attr source org_car2x_veins_modules_mac_sigSentAck
scalar Scenario.node[63].nic.mac1609_4 sentPackets:count 49
attr recordingmode count
attr source org_car2x_veins_modules_mac_sigSentPacket
scalar Scenario.node[63].nic.mac1609_4 collisions:count 0
attr recordingmode count
attr source org_car2x_veins_modules_mac_sigCollision
scalar Scenario.node[63].nic.mac1609_4 channelBusy:timeavg 0.034860612244898
attr recordingmode timeavg
attr source org_car2x_veins_modules_mac_sigChannelBusy
par Scenario.node[63].nic typename "\"org.car2x.veins.modules.nic.Nic80211p\""
par Scenario.node[63].nic connectionManagerName "\"connectionManager\""
par Scenario.node[63].veinsmobility typename "\"org.car2x.veins.modules.mobility.traci.TraCIMobility\""
par Scenario.node[63].veinsmobility notAffectedByHostState true
par Scenario.node[63].veinsmobility x 0
par Scenario.node[63].veinsmobility y 0
par Scenario.node[63].veinsmobility z 1.895
par Scenario.node[63].veinsmobility xOrientation 1
par Scenario.node[63].veinsmobility yOrientation 0
par Scenario.node[63].veinsmobility zOrientation 0
par Scenario.node[63].veinsmobility hostPositionOffset 0m
attr unit m
par Scenario.node[63].veinsmobility setHostSpeed false
par Scenario.node[63].veinsmobility accidentCount 0
par Scenario.node[63].veinsmobility accidentStart 46.6825s
attr unit s
par Scenario.node[63].veinsmobility accidentDuration "uniform(30s, 60s)"
attr unit s
par Scenario.node[63].veinsmobility accidentInterval "uniform(30s, 60s)"
attr unit s
scalar Scenario.node[63].veinsmobility startTime 95.1
scalar Scenario.node[63].veinsmobility totalTime 4.9
scalar Scenario.node[63].veinsmobility stopTime 100
scalar Scenario.node[63].veinsmobility minSpeed 0.25123436626955
scalar Scenario.node[63].veinsmobility maxSpeed 10.019795781149
scalar Scenario.node[63].veinsmobility totalDistance 25.751676726113
scalar Scenario.node[63].veinsmobility totalCO2Emission 19.030934930528
par Scenario.node[63] typename "\"org.car2x.veins.nodes.Car\""
par Scenario.node[63] applType "\"TraCIDemo11p\""
par Scenario.node[63] nicType "\"Nic80211p\""
par Scenario.node[63] veinsmobilityType "\"org.car2x.veins.modules.mobility.traci.TraCIMobility\""
par Scenario.node[64].appl typename "\"org.car2x.veins.modules.application.traci.TraCIDemo11p\""
par Scenario.node[64].appl headerLength 80bit
attr unit bit
par Scenario.node[64].appl sendBeacons true
par Scenario.node[64].appl beaconLengthBits 256bit
attr unit bit
par Scenario.node[64].appl beaconUserPriority 7
par Scenario.node[64].appl beaconInterval 0.1s
attr unit s
par Scenario.node[64].appl dataLengthBits 1024bit
attr unit bit
par Scenario.node[64].appl dataOnSch false
par Scenario.node[64].appl dataUserPriority 7
par Scenario.node[64].appl avoidBeaconSynchronization true
par Scenario.node[64].appl sendWSA false
par Scenario.node[64].appl wsaLengthBits 250bit
attr unit bit
par Scenario.node[64].appl wsaInterval 1s
attr unit s
scalar Scenario.node[64].appl generatedWSMs 0
scalar Scenario.node[64].appl receivedWSMs 0
scalar Scenario.node[64].appl generatedBSMs 23
scalar Scenario.node[64].appl receivedBSMs 771
scalar Scenario.node[64].appl generatedWSAs 0
scalar Scenario.node[64].appl receivedWSAs 0
par Scenario.node[64].nic.phy80211p typename "\"org.car2x.veins.modules.phy.PhyLayer80211p\""
par Scenario.node[64].nic.phy80211p recordStats false
par Scenario.node[64].nic.phy80211p usePropagationDelay true
par Scenario.node[64].nic.phy80211p noiseFloor -98dBm
attr unit dBm
par Scenario.node[64].nic.phy80211p useNoiseFloor true
par Scenario.node[64].nic.phy80211p antenna "<root>...</root> at content:1"
par Scenario.node[64].nic.phy80211p antennaOffsetX 0m
attr unit m
par Scenario.node[64].nic.phy80211p antennaOffsetY 0m
attr unit m
par Scenario.node[64].nic.phy80211p antennaOffsetZ 1.895m
attr unit m
par Scenario.node[64].nic.phy80211p antennaOffsetYaw 0rad
attr unit rad
par Scenario.node[64].nic.phy80211p analogueModels "<root>...</root> at /home/vagrant/spe-homework-project/Project/simulations//config_2.xml:2"
par Scenario.node[64].nic.phy80211p decider "<root>...</root> at /home/vagrant/spe-homework-project/Project/simulations//config_2.xml:2"
par Scenario.node[64].nic.phy80211p minPowerLevel -110dBm
attr unit dBm
par Scenario.node[64].nic.phy80211p timeRXToTX 0s
attr unit s
par Scenario.node[64].nic.phy80211p timeRXToSleep 0s
attr unit s
par Scenario.node[64].nic.phy80211p timeTXToRX 0s
attr unit s
par Scenario.node[64].nic.phy80211p timeTXToSleep 0s
attr unit s
par Scenario.node[64].nic.phy80211p timeSleepToRX 0s
attr unit s
par Scenario.node[64].nic.phy80211p timeSleepToTX 0s
attr unit s
par Scenario.node[64].nic.phy80211p initialRadioState 0
par Scenario.node[64].nic.phy80211p radioMinAtt 1
par Scenario.node[64].nic.phy80211p radioMaxAtt 0
par Scenario.node[64].nic.phy80211p nbRadioChannels 1
par Scenario.node[64].nic.phy80211p initialRadioChannel 0
par Scenario.node[64].nic.phy80211p ccaThreshold -65dBm
attr unit dBm
par Scenario.node[64].nic.phy80211p collectCollisionStatistics false
par Scenario.node[64].nic.phy80211p allowTxDuringRx false
scalar Scenario.node[64].nic.phy80211p busyTime 0.034862608695653
par Scenario.node[64].nic.mac1609_4 typename "\"org.car2x.veins.modules.mac.ieee80211p.Mac1609_4\""
par Scenario.node[64].nic.mac1609_4 notAffectedByHostState false
par Scenario.node[64].nic.mac1609_4 headerLength 0bit
attr unit bit
par Scenario.node[64].nic.mac1609_4 address "\"auto\""
par Scenario.node[64].nic.mac1609_4 useServiceChannel false
par Scenario.node[64].nic.mac1609_4 serviceChannel 1
par Scenario.node[64].nic.mac1609_4 bitrate 6000000bps
attr unit bps
par Scenario.node[64].nic.mac1609_4 syncOffset 0.0003s
attr unit s
par Scenario.node[64].nic.mac1609_4 txPower 20mW
attr unit mW
par Scenario.node[64].nic.mac1609_4 queueSize 0
par Scenario.node[64].nic.mac1609_4 dot11RTSThreshold 12000bit
attr unit bit
par Scenario.node[64].nic.mac1609_4 dot11ShortRetryLimit 7
par Scenario.node[64].nic.mac1609_4 dot11LongRetryLimit 4
par Scenario.node[64].nic.mac1609_4 ackLength 112bit
attr unit bit
par Scenario.node[64].nic.mac1609_4 useAcks false
par Scenario.node[64].nic.mac1609_4 frameErrorRate 0
par Scenario.node[64].nic.mac1609_4 ackErrorRate 0
scalar Scenario.node[64].nic.mac1609_4 ReceivedUnicastPackets 0
scalar Scenario.node[64].nic.mac1609_4 ReceivedBroadcasts 771
scalar Scenario.node[64].nic.mac1609_4 SentPackets 23
scalar Scenario.node[64].nic.mac1609_4 SentAcknowledgements 0
scalar Scenario.node[64].nic.mac1609_4 RetriesExceeded 0
scalar Scenario.node[64].nic.mac1609_4 SNIRLostPackets 0
scalar Scenario.node[64].nic.mac1609_4 RXTXLostPackets 0
scalar Scenario.node[64].nic.mac1609_4 TotalLostPackets 0
scalar Scenario.node[64].nic.mac1609_4 DroppedPacketsInMac 0
scalar Scenario.node[64].nic.mac1609_4 TooLittleTime 0
scalar Scenario.node[64].nic.mac1609_4 TimesIntoBackoff 23
scalar Scenario.node[64].nic.mac1609_4 SlotsBackoff 29
scalar Scenario.node[64].nic.mac1609_4 NumInternalContention 0
scalar Scenario.node[64].nic.mac1609_4 totalBusyTime 0.082599
scalar Scenario.node[64].nic.mac1609_4 retriesExceeded:count 0
attr recordingmode count
attr source org_car2x_veins_modules_mac_sigRetriesExceeded
scalar Scenario.node[64].nic.mac1609_4 sentAcks:count 0
attr recordingmode count
attr source org_car2x_veins_modules_mac_sigSentAck
scalar Scenario.node[64].nic.mac1609_4 sentPackets:count 23
attr recordingmode count
attr source org_car2x_veins_modules_mac_sigSentPacket
scalar Scenario.node[64].nic.mac1609_4 collisions:count 0
attr recordingmode count
attr source org_car2x_veins_modules_mac_sigCollision
scalar Scenario.node[64].nic.mac1609_4 channelBusy:timeavg 0.035912608695653
attr recordingmode timeavg
attr source org_car2x_veins_modules_mac_sigChannelBusy
par Scenario.node[64].nic typename "\"org.car2x.veins.modules.nic.Nic80211p\""
par Scenario.node[64].nic connectionManagerName "\"connectionManager\""
par Scenario.node[64].veinsmobility typename "\"org.car2x.veins.modules.mobility.traci.TraCIMobility\""
par Scenario.node[64].veinsmobility notAffectedByHostState true
par Scenario.node[64].veinsmobility x 0
par Scenario.node[64].veinsmobility y 0
par Scenario.node[64].veinsmobility z 1.895
par Scenario.node[64].veinsmobility xOrientation 1
par Scenario.node[64].veinsmobility yOrientation 0
par Scenario.node[64].veinsmobility zOrientation 0
par Scenario.node[64].veinsmobility hostPositionOffset 0m
attr unit m
par Scenario.node[64].veinsmobility setHostSpeed false
par Scenario.node[64].veinsmobility accidentCount 0
par Scenario.node[64].veinsmobility accidentStart 53.4745s
attr unit s
par Scenario.node[64].veinsmobility accidentDuration "uniform(30s, 60s)"
attr unit s
par Scenario.node[64].veinsmobility accidentInterval "uniform(30s, 60s)"
attr unit s
scalar Scenario.node[64].veinsmobility startTime 97.7
scalar Scenario.node[64].veinsmobility totalTime 2.3
scalar Scenario.node[64].veinsmobility stopTime 100
scalar Scenario.node[64].veinsmobility minSpeed 0.25374679815001
scalar Scenario.node[64].veinsmobility maxSpeed 4.9610096352977
scalar Scenario.node[64].veinsmobility totalDistance 6.1267991035451
scalar Scenario.node[64].veinsmobility totalCO2Emission 5.8264013406889
par Scenario.node[64] typename "\"org.car2x.veins.nodes.Car\""
par Scenario.node[64] applType "\"TraCIDemo11p\""
par Scenario.node[64] nicType "\"Nic80211p\""
par Scenario.node[64] veinsmobilityType "\"org.car2x.veins.modules.mobility.traci.TraCIMobility\""
par Scenario typename "\"org.car2x.veins.nodes.Scenario\""
par Scenario playgroundSizeX 1100m
attr unit m
par Scenario playgroundSizeY 200m
attr unit m
par Scenario playgroundSizeZ 50m
attr unit m

