version 3
run Scenario4-4-20260627-16:41:58-6680
attr configname Scenario4
attr datetime 20260627-16:41:58
attr datetimef 20260627-164158
attr experiment Scenario4
attr inifile omnetpp.ini
attr iterationvars ""
attr iterationvarsd ""
attr iterationvarsf ""
attr measurement ""
attr network org.car2x.veins.nodes.Scenario
attr processid 6680
attr repetition 4
attr replication #4
attr resultdir results
attr runnumber 4
attr seedset 4
config image-path ../../../veins/images
config extends Scenario3
config *.manager.launchConfig "xmldoc(\"half_traffic.launchd.xml\")"
config description "Obstacle Shadowing (Buildings block signals)"
config *.annotations.draw true
config *.obstacles.obstacles "xmldoc(\"config_3.xml\", \"//AnalogueModel[@type='SimpleObstacleShadowing']/obstacles\")"
config *.**.nic.phy80211p.decider "xmldoc(\"config_3.xml\")"
config *.**.nic.phy80211p.analogueModels "xmldoc(\"config_3.xml\")"
config repeat 10
config seed-set 4
config network org.car2x.veins.nodes.Scenario
config sim-time-limit 100s
config *.playgroundSizeX 600m
config *.playgroundSizeY 600m
config *.playgroundSizeZ 50m
config *.manager.updateInterval 0.1s
config *.manager.host "\"localhost\""
config *.manager.port 9999
config *.manager.autoShutdown true
config *.manager.launchConfig "xmldoc(\"simulation.launchd.xml\")"
config *.node[*].veinsmobility.x 0
config *.node[*].veinsmobility.y 0
config *.node[*].veinsmobility.z 1.895
config *.node[*].applType "\"TraCIDemo11p\""
config *.node[*].appl.headerLength "80 bit"
config *.node[*].appl.sendBeacons true
config *.node[*].appl.dataOnSch false
config *.node[*].appl.beaconInterval 0.1s
config *.connectionManager.sendDirect true
config *.connectionManager.maxInterfDist 500m
config *.connectionManager.drawMaxIntfDist false
config *.**.nic.mac1609_4.useServiceChannel false
config *.**.nic.mac1609_4.txPower 20mW
config *.**.nic.mac1609_4.bitrate 6Mbps
config *.**.nic.phy80211p.minPowerLevel -110dBm
config *.**.nic.phy80211p.useNoiseFloor true
config *.**.nic.phy80211p.noiseFloor -98dBm
config *.**.nic.phy80211p.usePropagationDelay true
config **.vector-recording true
config **.scalar-recording true
config *.**.nic.phy80211p.*.vector-recording true
config *.**.nic.mac1609_4.*.vector-recording true
config **.rcvdPower:vector.vector-recording true
config **.snir:vector.vector-recording true

par Scenario.node[3].appl typename "\"org.car2x.veins.modules.application.traci.TraCIDemo11p\""
par Scenario.node[3].appl headerLength 80bit
attr unit bit
par Scenario.node[3].appl sendBeacons true
par Scenario.node[3].appl beaconLengthBits 256bit
attr unit bit
par Scenario.node[3].appl beaconUserPriority 7
par Scenario.node[3].appl beaconInterval 0.1s
attr unit s
par Scenario.node[3].appl dataLengthBits 1024bit
attr unit bit
par Scenario.node[3].appl dataOnSch false
par Scenario.node[3].appl dataUserPriority 7
par Scenario.node[3].appl avoidBeaconSynchronization true
par Scenario.node[3].appl sendWSA false
par Scenario.node[3].appl wsaLengthBits 250bit
attr unit bit
par Scenario.node[3].appl wsaInterval 1s
attr unit s
scalar Scenario.node[3].appl generatedWSMs 0
scalar Scenario.node[3].appl receivedWSMs 0
scalar Scenario.node[3].appl generatedBSMs 264
scalar Scenario.node[3].appl receivedBSMs 944
scalar Scenario.node[3].appl generatedWSAs 0
scalar Scenario.node[3].appl receivedWSAs 0
par Scenario.node[3].nic.phy80211p typename "\"org.car2x.veins.modules.phy.PhyLayer80211p\""
par Scenario.node[3].nic.phy80211p recordStats false
par Scenario.node[3].nic.phy80211p usePropagationDelay true
par Scenario.node[3].nic.phy80211p noiseFloor -98dBm
attr unit dBm
par Scenario.node[3].nic.phy80211p useNoiseFloor true
par Scenario.node[3].nic.phy80211p antenna "<root>...</root> at content:1"
par Scenario.node[3].nic.phy80211p antennaOffsetX 0m
attr unit m
par Scenario.node[3].nic.phy80211p antennaOffsetY 0m
attr unit m
par Scenario.node[3].nic.phy80211p antennaOffsetZ 1.895m
attr unit m
par Scenario.node[3].nic.phy80211p antennaOffsetYaw 0rad
attr unit rad
par Scenario.node[3].nic.phy80211p analogueModels "<root>...</root> at /home/vagrant/spe-homework-project/Project/simulations//config_3.xml:2"
par Scenario.node[3].nic.phy80211p decider "<root>...</root> at /home/vagrant/spe-homework-project/Project/simulations//config_3.xml:2"
par Scenario.node[3].nic.phy80211p minPowerLevel -110dBm
attr unit dBm
par Scenario.node[3].nic.phy80211p timeRXToTX 0s
attr unit s
par Scenario.node[3].nic.phy80211p timeRXToSleep 0s
attr unit s
par Scenario.node[3].nic.phy80211p timeTXToRX 0s
attr unit s
par Scenario.node[3].nic.phy80211p timeTXToSleep 0s
attr unit s
par Scenario.node[3].nic.phy80211p timeSleepToRX 0s
attr unit s
par Scenario.node[3].nic.phy80211p timeSleepToTX 0s
attr unit s
par Scenario.node[3].nic.phy80211p initialRadioState 0
par Scenario.node[3].nic.phy80211p radioMinAtt 1
par Scenario.node[3].nic.phy80211p radioMaxAtt 0
par Scenario.node[3].nic.phy80211p nbRadioChannels 1
par Scenario.node[3].nic.phy80211p initialRadioChannel 0
par Scenario.node[3].nic.phy80211p ccaThreshold -65dBm
attr unit dBm
par Scenario.node[3].nic.phy80211p collectCollisionStatistics false
par Scenario.node[3].nic.phy80211p allowTxDuringRx false
scalar Scenario.node[3].nic.phy80211p busyTime 0.0041560606060607
par Scenario.node[3].nic.mac1609_4 typename "\"org.car2x.veins.modules.mac.ieee80211p.Mac1609_4\""
par Scenario.node[3].nic.mac1609_4 notAffectedByHostState false
par Scenario.node[3].nic.mac1609_4 headerLength 0bit
attr unit bit
par Scenario.node[3].nic.mac1609_4 address "\"auto\""
par Scenario.node[3].nic.mac1609_4 useServiceChannel false
par Scenario.node[3].nic.mac1609_4 serviceChannel 1
par Scenario.node[3].nic.mac1609_4 bitrate 6000000bps
attr unit bps
par Scenario.node[3].nic.mac1609_4 syncOffset 0.0003s
attr unit s
par Scenario.node[3].nic.mac1609_4 txPower 20mW
attr unit mW
par Scenario.node[3].nic.mac1609_4 queueSize 0
par Scenario.node[3].nic.mac1609_4 dot11RTSThreshold 12000bit
attr unit bit
par Scenario.node[3].nic.mac1609_4 dot11ShortRetryLimit 7
par Scenario.node[3].nic.mac1609_4 dot11LongRetryLimit 4
par Scenario.node[3].nic.mac1609_4 ackLength 112bit
attr unit bit
par Scenario.node[3].nic.mac1609_4 useAcks false
par Scenario.node[3].nic.mac1609_4 frameErrorRate 0
par Scenario.node[3].nic.mac1609_4 ackErrorRate 0
scalar Scenario.node[3].nic.mac1609_4 ReceivedUnicastPackets 0
scalar Scenario.node[3].nic.mac1609_4 ReceivedBroadcasts 944
scalar Scenario.node[3].nic.mac1609_4 SentPackets 264
scalar Scenario.node[3].nic.mac1609_4 SentAcknowledgements 0
scalar Scenario.node[3].nic.mac1609_4 RetriesExceeded 0
scalar Scenario.node[3].nic.mac1609_4 SNIRLostPackets 111
scalar Scenario.node[3].nic.mac1609_4 RXTXLostPackets 0
scalar Scenario.node[3].nic.mac1609_4 TotalLostPackets 111
scalar Scenario.node[3].nic.mac1609_4 DroppedPacketsInMac 0
scalar Scenario.node[3].nic.mac1609_4 TooLittleTime 0
scalar Scenario.node[3].nic.mac1609_4 TimesIntoBackoff 264
scalar Scenario.node[3].nic.mac1609_4 SlotsBackoff 405
scalar Scenario.node[3].nic.mac1609_4 NumInternalContention 0
scalar Scenario.node[3].nic.mac1609_4 totalBusyTime 0.13744
scalar Scenario.node[3].nic.mac1609_4 retriesExceeded:count 0
attr recordingmode count
attr source org_car2x_veins_modules_mac_sigRetriesExceeded
scalar Scenario.node[3].nic.mac1609_4 sentAcks:count 0
attr recordingmode count
attr source org_car2x_veins_modules_mac_sigSentAck
scalar Scenario.node[3].nic.mac1609_4 sentPackets:count 264
attr recordingmode count
attr source org_car2x_veins_modules_mac_sigSentPacket
scalar Scenario.node[3].nic.mac1609_4 collisions:count 0
attr recordingmode count
attr source org_car2x_veins_modules_mac_sigCollision
scalar Scenario.node[3].nic.mac1609_4 channelBusy:timeavg 0.0052060606060607
attr recordingmode timeavg
attr source org_car2x_veins_modules_mac_sigChannelBusy
par Scenario.node[3].nic typename "\"org.car2x.veins.modules.nic.Nic80211p\""
par Scenario.node[3].nic connectionManagerName "\"connectionManager\""
par Scenario.node[3].veinsmobility typename "\"org.car2x.veins.modules.mobility.traci.TraCIMobility\""
par Scenario.node[3].veinsmobility notAffectedByHostState true
par Scenario.node[3].veinsmobility x 0
par Scenario.node[3].veinsmobility y 0
par Scenario.node[3].veinsmobility z 1.895
par Scenario.node[3].veinsmobility xOrientation 1
par Scenario.node[3].veinsmobility yOrientation 0
par Scenario.node[3].veinsmobility zOrientation 0
par Scenario.node[3].veinsmobility hostPositionOffset 0m
attr unit m
par Scenario.node[3].veinsmobility setHostSpeed false
par Scenario.node[3].veinsmobility accidentCount 0
par Scenario.node[3].veinsmobility accidentStart 51.8059s
attr unit s
par Scenario.node[3].veinsmobility accidentDuration "uniform(30s, 60s)"
attr unit s
par Scenario.node[3].veinsmobility accidentInterval "uniform(30s, 60s)"
attr unit s
scalar Scenario.node[3].veinsmobility startTime 6.1
scalar Scenario.node[3].veinsmobility totalTime 26.3
scalar Scenario.node[3].veinsmobility stopTime 32.5
scalar Scenario.node[3].veinsmobility minSpeed 0.2570972159754
scalar Scenario.node[3].veinsmobility maxSpeed 13.37334385855
scalar Scenario.node[3].veinsmobility totalDistance 278.96223609722
scalar Scenario.node[3].veinsmobility totalCO2Emission 87.950963243508
par Scenario.node[3] typename "\"org.car2x.veins.nodes.Car\""
par Scenario.node[3] applType "\"TraCIDemo11p\""
par Scenario.node[3] nicType "\"Nic80211p\""
par Scenario.node[3] veinsmobilityType "\"org.car2x.veins.modules.mobility.traci.TraCIMobility\""
par Scenario.node[1].appl typename "\"org.car2x.veins.modules.application.traci.TraCIDemo11p\""
par Scenario.node[1].appl headerLength 80bit
attr unit bit
par Scenario.node[1].appl sendBeacons true
par Scenario.node[1].appl beaconLengthBits 256bit
attr unit bit
par Scenario.node[1].appl beaconUserPriority 7
par Scenario.node[1].appl beaconInterval 0.1s
attr unit s
par Scenario.node[1].appl dataLengthBits 1024bit
attr unit bit
par Scenario.node[1].appl dataOnSch false
par Scenario.node[1].appl dataUserPriority 7
par Scenario.node[1].appl avoidBeaconSynchronization true
par Scenario.node[1].appl sendWSA false
par Scenario.node[1].appl wsaLengthBits 250bit
attr unit bit
par Scenario.node[1].appl wsaInterval 1s
attr unit s
scalar Scenario.node[1].appl generatedWSMs 0
scalar Scenario.node[1].appl receivedWSMs 0
scalar Scenario.node[1].appl generatedBSMs 453
scalar Scenario.node[1].appl receivedBSMs 2067
scalar Scenario.node[1].appl generatedWSAs 0
scalar Scenario.node[1].appl receivedWSAs 0
par Scenario.node[1].nic.phy80211p typename "\"org.car2x.veins.modules.phy.PhyLayer80211p\""
par Scenario.node[1].nic.phy80211p recordStats false
par Scenario.node[1].nic.phy80211p usePropagationDelay true
par Scenario.node[1].nic.phy80211p noiseFloor -98dBm
attr unit dBm
par Scenario.node[1].nic.phy80211p useNoiseFloor true
par Scenario.node[1].nic.phy80211p antenna "<root>...</root> at content:1"
par Scenario.node[1].nic.phy80211p antennaOffsetX 0m
attr unit m
par Scenario.node[1].nic.phy80211p antennaOffsetY 0m
attr unit m
par Scenario.node[1].nic.phy80211p antennaOffsetZ 1.895m
attr unit m
par Scenario.node[1].nic.phy80211p antennaOffsetYaw 0rad
attr unit rad
par Scenario.node[1].nic.phy80211p analogueModels "<root>...</root> at /home/vagrant/spe-homework-project/Project/simulations//config_3.xml:2"
par Scenario.node[1].nic.phy80211p decider "<root>...</root> at /home/vagrant/spe-homework-project/Project/simulations//config_3.xml:2"
par Scenario.node[1].nic.phy80211p minPowerLevel -110dBm
attr unit dBm
par Scenario.node[1].nic.phy80211p timeRXToTX 0s
attr unit s
par Scenario.node[1].nic.phy80211p timeRXToSleep 0s
attr unit s
par Scenario.node[1].nic.phy80211p timeTXToRX 0s
attr unit s
par Scenario.node[1].nic.phy80211p timeTXToSleep 0s
attr unit s
par Scenario.node[1].nic.phy80211p timeSleepToRX 0s
attr unit s
par Scenario.node[1].nic.phy80211p timeSleepToTX 0s
attr unit s
par Scenario.node[1].nic.phy80211p initialRadioState 0
par Scenario.node[1].nic.phy80211p radioMinAtt 1
par Scenario.node[1].nic.phy80211p radioMaxAtt 0
par Scenario.node[1].nic.phy80211p nbRadioChannels 1
par Scenario.node[1].nic.phy80211p initialRadioChannel 0
par Scenario.node[1].nic.phy80211p ccaThreshold -65dBm
attr unit dBm
par Scenario.node[1].nic.phy80211p collectCollisionStatistics false
par Scenario.node[1].nic.phy80211p allowTxDuringRx false
scalar Scenario.node[1].nic.phy80211p busyTime 0.0054479470198675
par Scenario.node[1].nic.mac1609_4 typename "\"org.car2x.veins.modules.mac.ieee80211p.Mac1609_4\""
par Scenario.node[1].nic.mac1609_4 notAffectedByHostState false
par Scenario.node[1].nic.mac1609_4 headerLength 0bit
attr unit bit
par Scenario.node[1].nic.mac1609_4 address "\"auto\""
par Scenario.node[1].nic.mac1609_4 useServiceChannel false
par Scenario.node[1].nic.mac1609_4 serviceChannel 1
par Scenario.node[1].nic.mac1609_4 bitrate 6000000bps
attr unit bps
par Scenario.node[1].nic.mac1609_4 syncOffset 0.0003s
attr unit s
par Scenario.node[1].nic.mac1609_4 txPower 20mW
attr unit mW
par Scenario.node[1].nic.mac1609_4 queueSize 0
par Scenario.node[1].nic.mac1609_4 dot11RTSThreshold 12000bit
attr unit bit
par Scenario.node[1].nic.mac1609_4 dot11ShortRetryLimit 7
par Scenario.node[1].nic.mac1609_4 dot11LongRetryLimit 4
par Scenario.node[1].nic.mac1609_4 ackLength 112bit
attr unit bit
par Scenario.node[1].nic.mac1609_4 useAcks false
par Scenario.node[1].nic.mac1609_4 frameErrorRate 0
par Scenario.node[1].nic.mac1609_4 ackErrorRate 0
scalar Scenario.node[1].nic.mac1609_4 ReceivedUnicastPackets 0
scalar Scenario.node[1].nic.mac1609_4 ReceivedBroadcasts 2067
scalar Scenario.node[1].nic.mac1609_4 SentPackets 453
scalar Scenario.node[1].nic.mac1609_4 SentAcknowledgements 0
scalar Scenario.node[1].nic.mac1609_4 RetriesExceeded 0
scalar Scenario.node[1].nic.mac1609_4 SNIRLostPackets 306
scalar Scenario.node[1].nic.mac1609_4 RXTXLostPackets 0
scalar Scenario.node[1].nic.mac1609_4 TotalLostPackets 306
scalar Scenario.node[1].nic.mac1609_4 DroppedPacketsInMac 0
scalar Scenario.node[1].nic.mac1609_4 TooLittleTime 0
scalar Scenario.node[1].nic.mac1609_4 TimesIntoBackoff 453
scalar Scenario.node[1].nic.mac1609_4 SlotsBackoff 644
scalar Scenario.node[1].nic.mac1609_4 NumInternalContention 0
scalar Scenario.node[1].nic.mac1609_4 totalBusyTime 0.294357
scalar Scenario.node[1].nic.mac1609_4 retriesExceeded:count 0
attr recordingmode count
attr source org_car2x_veins_modules_mac_sigRetriesExceeded
scalar Scenario.node[1].nic.mac1609_4 sentAcks:count 0
attr recordingmode count
attr source org_car2x_veins_modules_mac_sigSentAck
scalar Scenario.node[1].nic.mac1609_4 sentPackets:count 453
attr recordingmode count
attr source org_car2x_veins_modules_mac_sigSentPacket
scalar Scenario.node[1].nic.mac1609_4 collisions:count 0
attr recordingmode count
attr source org_car2x_veins_modules_mac_sigCollision
scalar Scenario.node[1].nic.mac1609_4 channelBusy:timeavg 0.0064979470198674
attr recordingmode timeavg
attr source org_car2x_veins_modules_mac_sigChannelBusy
par Scenario.node[1].nic typename "\"org.car2x.veins.modules.nic.Nic80211p\""
par Scenario.node[1].nic connectionManagerName "\"connectionManager\""
par Scenario.node[1].veinsmobility typename "\"org.car2x.veins.modules.mobility.traci.TraCIMobility\""
par Scenario.node[1].veinsmobility notAffectedByHostState true
par Scenario.node[1].veinsmobility x 0
par Scenario.node[1].veinsmobility y 0
par Scenario.node[1].veinsmobility z 1.895
par Scenario.node[1].veinsmobility xOrientation 1
par Scenario.node[1].veinsmobility yOrientation 0
par Scenario.node[1].veinsmobility zOrientation 0
par Scenario.node[1].veinsmobility hostPositionOffset 0m
attr unit m
par Scenario.node[1].veinsmobility setHostSpeed false
par Scenario.node[1].veinsmobility accidentCount 0
par Scenario.node[1].veinsmobility accidentStart 40.8449s
attr unit s
par Scenario.node[1].veinsmobility accidentDuration "uniform(30s, 60s)"
attr unit s
par Scenario.node[1].veinsmobility accidentInterval "uniform(30s, 60s)"
attr unit s
scalar Scenario.node[1].veinsmobility startTime 2.1
scalar Scenario.node[1].veinsmobility totalTime 45.2
scalar Scenario.node[1].veinsmobility stopTime 47.4
scalar Scenario.node[1].veinsmobility minSpeed 0.25676936834957
scalar Scenario.node[1].veinsmobility maxSpeed 16.005179194621
scalar Scenario.node[1].veinsmobility totalDistance 576.69179108648
scalar Scenario.node[1].veinsmobility totalCO2Emission 174.12126156685
par Scenario.node[1] typename "\"org.car2x.veins.nodes.Car\""
par Scenario.node[1] applType "\"TraCIDemo11p\""
par Scenario.node[1] nicType "\"Nic80211p\""
par Scenario.node[1] veinsmobilityType "\"org.car2x.veins.modules.mobility.traci.TraCIMobility\""
par Scenario.node[0].appl typename "\"org.car2x.veins.modules.application.traci.TraCIDemo11p\""
par Scenario.node[0].appl headerLength 80bit
attr unit bit
par Scenario.node[0].appl sendBeacons true
par Scenario.node[0].appl beaconLengthBits 256bit
attr unit bit
par Scenario.node[0].appl beaconUserPriority 7
par Scenario.node[0].appl beaconInterval 0.1s
attr unit s
par Scenario.node[0].appl dataLengthBits 1024bit
attr unit bit
par Scenario.node[0].appl dataOnSch false
par Scenario.node[0].appl dataUserPriority 7
par Scenario.node[0].appl avoidBeaconSynchronization true
par Scenario.node[0].appl sendWSA false
par Scenario.node[0].appl wsaLengthBits 250bit
attr unit bit
par Scenario.node[0].appl wsaInterval 1s
attr unit s
scalar Scenario.node[0].appl generatedWSMs 0
scalar Scenario.node[0].appl receivedWSMs 0
scalar Scenario.node[0].appl generatedBSMs 497
scalar Scenario.node[0].appl receivedBSMs 1228
scalar Scenario.node[0].appl generatedWSAs 0
scalar Scenario.node[0].appl receivedWSAs 0
par Scenario.node[0].nic.phy80211p typename "\"org.car2x.veins.modules.phy.PhyLayer80211p\""
par Scenario.node[0].nic.phy80211p recordStats false
par Scenario.node[0].nic.phy80211p usePropagationDelay true
par Scenario.node[0].nic.phy80211p noiseFloor -98dBm
attr unit dBm
par Scenario.node[0].nic.phy80211p useNoiseFloor true
par Scenario.node[0].nic.phy80211p antenna "<root>...</root> at content:1"
par Scenario.node[0].nic.phy80211p antennaOffsetX 0m
attr unit m
par Scenario.node[0].nic.phy80211p antennaOffsetY 0m
attr unit m
par Scenario.node[0].nic.phy80211p antennaOffsetZ 1.895m
attr unit m
par Scenario.node[0].nic.phy80211p antennaOffsetYaw 0rad
attr unit rad
par Scenario.node[0].nic.phy80211p analogueModels "<root>...</root> at /home/vagrant/spe-homework-project/Project/simulations//config_3.xml:2"
par Scenario.node[0].nic.phy80211p decider "<root>...</root> at /home/vagrant/spe-homework-project/Project/simulations//config_3.xml:2"
par Scenario.node[0].nic.phy80211p minPowerLevel -110dBm
attr unit dBm
par Scenario.node[0].nic.phy80211p timeRXToTX 0s
attr unit s
par Scenario.node[0].nic.phy80211p timeRXToSleep 0s
attr unit s
par Scenario.node[0].nic.phy80211p timeTXToRX 0s
attr unit s
par Scenario.node[0].nic.phy80211p timeTXToSleep 0s
attr unit s
par Scenario.node[0].nic.phy80211p timeSleepToRX 0s
attr unit s
par Scenario.node[0].nic.phy80211p timeSleepToTX 0s
attr unit s
par Scenario.node[0].nic.phy80211p initialRadioState 0
par Scenario.node[0].nic.phy80211p radioMinAtt 1
par Scenario.node[0].nic.phy80211p radioMaxAtt 0
par Scenario.node[0].nic.phy80211p nbRadioChannels 1
par Scenario.node[0].nic.phy80211p initialRadioChannel 0
par Scenario.node[0].nic.phy80211p ccaThreshold -65dBm
attr unit dBm
par Scenario.node[0].nic.phy80211p collectCollisionStatistics false
par Scenario.node[0].nic.phy80211p allowTxDuringRx false
scalar Scenario.node[0].nic.phy80211p busyTime 0.0030321126760564
par Scenario.node[0].nic.mac1609_4 typename "\"org.car2x.veins.modules.mac.ieee80211p.Mac1609_4\""
par Scenario.node[0].nic.mac1609_4 notAffectedByHostState false
par Scenario.node[0].nic.mac1609_4 headerLength 0bit
attr unit bit
par Scenario.node[0].nic.mac1609_4 address "\"auto\""
par Scenario.node[0].nic.mac1609_4 useServiceChannel false
par Scenario.node[0].nic.mac1609_4 serviceChannel 1
par Scenario.node[0].nic.mac1609_4 bitrate 6000000bps
attr unit bps
par Scenario.node[0].nic.mac1609_4 syncOffset 0.0003s
attr unit s
par Scenario.node[0].nic.mac1609_4 txPower 20mW
attr unit mW
par Scenario.node[0].nic.mac1609_4 queueSize 0
par Scenario.node[0].nic.mac1609_4 dot11RTSThreshold 12000bit
attr unit bit
par Scenario.node[0].nic.mac1609_4 dot11ShortRetryLimit 7
par Scenario.node[0].nic.mac1609_4 dot11LongRetryLimit 4
par Scenario.node[0].nic.mac1609_4 ackLength 112bit
attr unit bit
par Scenario.node[0].nic.mac1609_4 useAcks false
par Scenario.node[0].nic.mac1609_4 frameErrorRate 0
par Scenario.node[0].nic.mac1609_4 ackErrorRate 0
scalar Scenario.node[0].nic.mac1609_4 ReceivedUnicastPackets 0
scalar Scenario.node[0].nic.mac1609_4 ReceivedBroadcasts 1228
scalar Scenario.node[0].nic.mac1609_4 SentPackets 497
scalar Scenario.node[0].nic.mac1609_4 SentAcknowledgements 0
scalar Scenario.node[0].nic.mac1609_4 RetriesExceeded 0
scalar Scenario.node[0].nic.mac1609_4 SNIRLostPackets 221
scalar Scenario.node[0].nic.mac1609_4 RXTXLostPackets 0
scalar Scenario.node[0].nic.mac1609_4 TotalLostPackets 221
scalar Scenario.node[0].nic.mac1609_4 DroppedPacketsInMac 0
scalar Scenario.node[0].nic.mac1609_4 TooLittleTime 0
scalar Scenario.node[0].nic.mac1609_4 TimesIntoBackoff 497
scalar Scenario.node[0].nic.mac1609_4 SlotsBackoff 769
scalar Scenario.node[0].nic.mac1609_4 NumInternalContention 0
scalar Scenario.node[0].nic.mac1609_4 totalBusyTime 0.202881
scalar Scenario.node[0].nic.mac1609_4 retriesExceeded:count 0
attr recordingmode count
attr source org_car2x_veins_modules_mac_sigRetriesExceeded
scalar Scenario.node[0].nic.mac1609_4 sentAcks:count 0
attr recordingmode count
attr source org_car2x_veins_modules_mac_sigSentAck
scalar Scenario.node[0].nic.mac1609_4 sentPackets:count 497
attr recordingmode count
attr source org_car2x_veins_modules_mac_sigSentPacket
scalar Scenario.node[0].nic.mac1609_4 collisions:count 0
attr recordingmode count
attr source org_car2x_veins_modules_mac_sigCollision
scalar Scenario.node[0].nic.mac1609_4 channelBusy:timeavg 0.0040821126760563
attr recordingmode timeavg
attr source org_car2x_veins_modules_mac_sigChannelBusy
par Scenario.node[0].nic typename "\"org.car2x.veins.modules.nic.Nic80211p\""
par Scenario.node[0].nic connectionManagerName "\"connectionManager\""
par Scenario.node[0].veinsmobility typename "\"org.car2x.veins.modules.mobility.traci.TraCIMobility\""
par Scenario.node[0].veinsmobility notAffectedByHostState true
par Scenario.node[0].veinsmobility x 0
par Scenario.node[0].veinsmobility y 0
par Scenario.node[0].veinsmobility z 1.895
par Scenario.node[0].veinsmobility xOrientation 1
par Scenario.node[0].veinsmobility yOrientation 0
par Scenario.node[0].veinsmobility zOrientation 0
par Scenario.node[0].veinsmobility hostPositionOffset 0m
attr unit m
par Scenario.node[0].veinsmobility setHostSpeed false
par Scenario.node[0].veinsmobility accidentCount 0
par Scenario.node[0].veinsmobility accidentStart 59.0109s
attr unit s
par Scenario.node[0].veinsmobility accidentDuration "uniform(30s, 60s)"
attr unit s
par Scenario.node[0].veinsmobility accidentInterval "uniform(30s, 60s)"
attr unit s
scalar Scenario.node[0].veinsmobility startTime 0.1
scalar Scenario.node[0].veinsmobility totalTime 49.6
scalar Scenario.node[0].veinsmobility stopTime 49.8
scalar Scenario.node[0].veinsmobility minSpeed 0.25628130026674
scalar Scenario.node[0].veinsmobility maxSpeed 14.14552093824
scalar Scenario.node[0].veinsmobility totalDistance 570.67747862091
scalar Scenario.node[0].veinsmobility totalCO2Emission 163.83344354687
par Scenario.node[0] typename "\"org.car2x.veins.nodes.Car\""
par Scenario.node[0] applType "\"TraCIDemo11p\""
par Scenario.node[0] nicType "\"Nic80211p\""
par Scenario.node[0] veinsmobilityType "\"org.car2x.veins.modules.mobility.traci.TraCIMobility\""
par Scenario.node[8].appl typename "\"org.car2x.veins.modules.application.traci.TraCIDemo11p\""
par Scenario.node[8].appl headerLength 80bit
attr unit bit
par Scenario.node[8].appl sendBeacons true
par Scenario.node[8].appl beaconLengthBits 256bit
attr unit bit
par Scenario.node[8].appl beaconUserPriority 7
par Scenario.node[8].appl beaconInterval 0.1s
attr unit s
par Scenario.node[8].appl dataLengthBits 1024bit
attr unit bit
par Scenario.node[8].appl dataOnSch false
par Scenario.node[8].appl dataUserPriority 7
par Scenario.node[8].appl avoidBeaconSynchronization true
par Scenario.node[8].appl sendWSA false
par Scenario.node[8].appl wsaLengthBits 250bit
attr unit bit
par Scenario.node[8].appl wsaInterval 1s
attr unit s
scalar Scenario.node[8].appl generatedWSMs 0
scalar Scenario.node[8].appl receivedWSMs 0
scalar Scenario.node[8].appl generatedBSMs 393
scalar Scenario.node[8].appl receivedBSMs 2610
scalar Scenario.node[8].appl generatedWSAs 0
scalar Scenario.node[8].appl receivedWSAs 0
par Scenario.node[8].nic.phy80211p typename "\"org.car2x.veins.modules.phy.PhyLayer80211p\""
par Scenario.node[8].nic.phy80211p recordStats false
par Scenario.node[8].nic.phy80211p usePropagationDelay true
par Scenario.node[8].nic.phy80211p noiseFloor -98dBm
attr unit dBm
par Scenario.node[8].nic.phy80211p useNoiseFloor true
par Scenario.node[8].nic.phy80211p antenna "<root>...</root> at content:1"
par Scenario.node[8].nic.phy80211p antennaOffsetX 0m
attr unit m
par Scenario.node[8].nic.phy80211p antennaOffsetY 0m
attr unit m
par Scenario.node[8].nic.phy80211p antennaOffsetZ 1.895m
attr unit m
par Scenario.node[8].nic.phy80211p antennaOffsetYaw 0rad
attr unit rad
par Scenario.node[8].nic.phy80211p analogueModels "<root>...</root> at /home/vagrant/spe-homework-project/Project/simulations//config_3.xml:2"
par Scenario.node[8].nic.phy80211p decider "<root>...</root> at /home/vagrant/spe-homework-project/Project/simulations//config_3.xml:2"
par Scenario.node[8].nic.phy80211p minPowerLevel -110dBm
attr unit dBm
par Scenario.node[8].nic.phy80211p timeRXToTX 0s
attr unit s
par Scenario.node[8].nic.phy80211p timeRXToSleep 0s
attr unit s
par Scenario.node[8].nic.phy80211p timeTXToRX 0s
attr unit s
par Scenario.node[8].nic.phy80211p timeTXToSleep 0s
attr unit s
par Scenario.node[8].nic.phy80211p timeSleepToRX 0s
attr unit s
par Scenario.node[8].nic.phy80211p timeSleepToTX 0s
attr unit s
par Scenario.node[8].nic.phy80211p initialRadioState 0
par Scenario.node[8].nic.phy80211p radioMinAtt 1
par Scenario.node[8].nic.phy80211p radioMaxAtt 0
par Scenario.node[8].nic.phy80211p nbRadioChannels 1
par Scenario.node[8].nic.phy80211p initialRadioChannel 0
par Scenario.node[8].nic.phy80211p ccaThreshold -65dBm
attr unit dBm
par Scenario.node[8].nic.phy80211p collectCollisionStatistics false
par Scenario.node[8].nic.phy80211p allowTxDuringRx false
scalar Scenario.node[8].nic.phy80211p busyTime 0.0082220865139947
par Scenario.node[8].nic.mac1609_4 typename "\"org.car2x.veins.modules.mac.ieee80211p.Mac1609_4\""
par Scenario.node[8].nic.mac1609_4 notAffectedByHostState false
par Scenario.node[8].nic.mac1609_4 headerLength 0bit
attr unit bit
par Scenario.node[8].nic.mac1609_4 address "\"auto\""
par Scenario.node[8].nic.mac1609_4 useServiceChannel false
par Scenario.node[8].nic.mac1609_4 serviceChannel 1
par Scenario.node[8].nic.mac1609_4 bitrate 6000000bps
attr unit bps
par Scenario.node[8].nic.mac1609_4 syncOffset 0.0003s
attr unit s
par Scenario.node[8].nic.mac1609_4 txPower 20mW
attr unit mW
par Scenario.node[8].nic.mac1609_4 queueSize 0
par Scenario.node[8].nic.mac1609_4 dot11RTSThreshold 12000bit
attr unit bit
par Scenario.node[8].nic.mac1609_4 dot11ShortRetryLimit 7
par Scenario.node[8].nic.mac1609_4 dot11LongRetryLimit 4
par Scenario.node[8].nic.mac1609_4 ackLength 112bit
attr unit bit
par Scenario.node[8].nic.mac1609_4 useAcks false
par Scenario.node[8].nic.mac1609_4 frameErrorRate 0
par Scenario.node[8].nic.mac1609_4 ackErrorRate 0
scalar Scenario.node[8].nic.mac1609_4 ReceivedUnicastPackets 0
scalar Scenario.node[8].nic.mac1609_4 ReceivedBroadcasts 2610
scalar Scenario.node[8].nic.mac1609_4 SentPackets 393
scalar Scenario.node[8].nic.mac1609_4 SentAcknowledgements 0
scalar Scenario.node[8].nic.mac1609_4 RetriesExceeded 0
scalar Scenario.node[8].nic.mac1609_4 SNIRLostPackets 497
scalar Scenario.node[8].nic.mac1609_4 RXTXLostPackets 0
scalar Scenario.node[8].nic.mac1609_4 TotalLostPackets 497
scalar Scenario.node[8].nic.mac1609_4 DroppedPacketsInMac 0
scalar Scenario.node[8].nic.mac1609_4 TooLittleTime 0
scalar Scenario.node[8].nic.mac1609_4 TimesIntoBackoff 393
scalar Scenario.node[8].nic.mac1609_4 SlotsBackoff 588
scalar Scenario.node[8].nic.mac1609_4 NumInternalContention 0
scalar Scenario.node[8].nic.mac1609_4 totalBusyTime 0.364393
scalar Scenario.node[8].nic.mac1609_4 retriesExceeded:count 0
attr recordingmode count
attr source org_car2x_veins_modules_mac_sigRetriesExceeded
scalar Scenario.node[8].nic.mac1609_4 sentAcks:count 0
attr recordingmode count
attr source org_car2x_veins_modules_mac_sigSentAck
scalar Scenario.node[8].nic.mac1609_4 sentPackets:count 393
attr recordingmode count
attr source org_car2x_veins_modules_mac_sigSentPacket
scalar Scenario.node[8].nic.mac1609_4 collisions:count 0
attr recordingmode count
attr source org_car2x_veins_modules_mac_sigCollision
scalar Scenario.node[8].nic.mac1609_4 channelBusy:timeavg 0.0092720865139947
attr recordingmode timeavg
attr source org_car2x_veins_modules_mac_sigChannelBusy
par Scenario.node[8].nic typename "\"org.car2x.veins.modules.nic.Nic80211p\""
par Scenario.node[8].nic connectionManagerName "\"connectionManager\""
par Scenario.node[8].veinsmobility typename "\"org.car2x.veins.modules.mobility.traci.TraCIMobility\""
par Scenario.node[8].veinsmobility notAffectedByHostState true
par Scenario.node[8].veinsmobility x 0
par Scenario.node[8].veinsmobility y 0
par Scenario.node[8].veinsmobility z 1.895
par Scenario.node[8].veinsmobility xOrientation 1
par Scenario.node[8].veinsmobility yOrientation 0
par Scenario.node[8].veinsmobility zOrientation 0
par Scenario.node[8].veinsmobility hostPositionOffset 0m
attr unit m
par Scenario.node[8].veinsmobility setHostSpeed false
par Scenario.node[8].veinsmobility accidentCount 0
par Scenario.node[8].veinsmobility accidentStart 56.4218s
attr unit s
par Scenario.node[8].veinsmobility accidentDuration "uniform(30s, 60s)"
attr unit s
par Scenario.node[8].veinsmobility accidentInterval "uniform(30s, 60s)"
attr unit s
scalar Scenario.node[8].veinsmobility startTime 16.1
scalar Scenario.node[8].veinsmobility totalTime 39.2
scalar Scenario.node[8].veinsmobility stopTime 55.4
scalar Scenario.node[8].veinsmobility minSpeed 0.25052282136376
scalar Scenario.node[8].veinsmobility maxSpeed 14.175224376354
scalar Scenario.node[8].veinsmobility totalDistance 420.13429833375
scalar Scenario.node[8].veinsmobility totalCO2Emission 138.92785655868
par Scenario.node[8] typename "\"org.car2x.veins.nodes.Car\""
par Scenario.node[8] applType "\"TraCIDemo11p\""
par Scenario.node[8] nicType "\"Nic80211p\""
par Scenario.node[8] veinsmobilityType "\"org.car2x.veins.modules.mobility.traci.TraCIMobility\""
par Scenario.node[5].appl typename "\"org.car2x.veins.modules.application.traci.TraCIDemo11p\""
par Scenario.node[5].appl headerLength 80bit
attr unit bit
par Scenario.node[5].appl sendBeacons true
par Scenario.node[5].appl beaconLengthBits 256bit
attr unit bit
par Scenario.node[5].appl beaconUserPriority 7
par Scenario.node[5].appl beaconInterval 0.1s
attr unit s
par Scenario.node[5].appl dataLengthBits 1024bit
attr unit bit
par Scenario.node[5].appl dataOnSch false
par Scenario.node[5].appl dataUserPriority 7
par Scenario.node[5].appl avoidBeaconSynchronization true
par Scenario.node[5].appl sendWSA false
par Scenario.node[5].appl wsaLengthBits 250bit
attr unit bit
par Scenario.node[5].appl wsaInterval 1s
attr unit s
scalar Scenario.node[5].appl generatedWSMs 0
scalar Scenario.node[5].appl receivedWSMs 0
scalar Scenario.node[5].appl generatedBSMs 456
scalar Scenario.node[5].appl receivedBSMs 3135
scalar Scenario.node[5].appl generatedWSAs 0
scalar Scenario.node[5].appl receivedWSAs 0
par Scenario.node[5].nic.phy80211p typename "\"org.car2x.veins.modules.phy.PhyLayer80211p\""
par Scenario.node[5].nic.phy80211p recordStats false
par Scenario.node[5].nic.phy80211p usePropagationDelay true
par Scenario.node[5].nic.phy80211p noiseFloor -98dBm
attr unit dBm
par Scenario.node[5].nic.phy80211p useNoiseFloor true
par Scenario.node[5].nic.phy80211p antenna "<root>...</root> at content:1"
par Scenario.node[5].nic.phy80211p antennaOffsetX 0m
attr unit m
par Scenario.node[5].nic.phy80211p antennaOffsetY 0m
attr unit m
par Scenario.node[5].nic.phy80211p antennaOffsetZ 1.895m
attr unit m
par Scenario.node[5].nic.phy80211p antennaOffsetYaw 0rad
attr unit rad
par Scenario.node[5].nic.phy80211p analogueModels "<root>...</root> at /home/vagrant/spe-homework-project/Project/simulations//config_3.xml:2"
par Scenario.node[5].nic.phy80211p decider "<root>...</root> at /home/vagrant/spe-homework-project/Project/simulations//config_3.xml:2"
par Scenario.node[5].nic.phy80211p minPowerLevel -110dBm
attr unit dBm
par Scenario.node[5].nic.phy80211p timeRXToTX 0s
attr unit s
par Scenario.node[5].nic.phy80211p timeRXToSleep 0s
attr unit s
par Scenario.node[5].nic.phy80211p timeTXToRX 0s
attr unit s
par Scenario.node[5].nic.phy80211p timeTXToSleep 0s
attr unit s
par Scenario.node[5].nic.phy80211p timeSleepToRX 0s
attr unit s
par Scenario.node[5].nic.phy80211p timeSleepToTX 0s
attr unit s
par Scenario.node[5].nic.phy80211p initialRadioState 0
par Scenario.node[5].nic.phy80211p radioMinAtt 1
par Scenario.node[5].nic.phy80211p radioMaxAtt 0
par Scenario.node[5].nic.phy80211p nbRadioChannels 1
par Scenario.node[5].nic.phy80211p initialRadioChannel 0
par Scenario.node[5].nic.phy80211p ccaThreshold -65dBm
attr unit dBm
par Scenario.node[5].nic.phy80211p collectCollisionStatistics false
par Scenario.node[5].nic.phy80211p allowTxDuringRx false
scalar Scenario.node[5].nic.phy80211p busyTime 0.0081899999999997
par Scenario.node[5].nic.mac1609_4 typename "\"org.car2x.veins.modules.mac.ieee80211p.Mac1609_4\""
par Scenario.node[5].nic.mac1609_4 notAffectedByHostState false
par Scenario.node[5].nic.mac1609_4 headerLength 0bit
attr unit bit
par Scenario.node[5].nic.mac1609_4 address "\"auto\""
par Scenario.node[5].nic.mac1609_4 useServiceChannel false
par Scenario.node[5].nic.mac1609_4 serviceChannel 1
par Scenario.node[5].nic.mac1609_4 bitrate 6000000bps
attr unit bps
par Scenario.node[5].nic.mac1609_4 syncOffset 0.0003s
attr unit s
par Scenario.node[5].nic.mac1609_4 txPower 20mW
attr unit mW
par Scenario.node[5].nic.mac1609_4 queueSize 0
par Scenario.node[5].nic.mac1609_4 dot11RTSThreshold 12000bit
attr unit bit
par Scenario.node[5].nic.mac1609_4 dot11ShortRetryLimit 7
par Scenario.node[5].nic.mac1609_4 dot11LongRetryLimit 4
par Scenario.node[5].nic.mac1609_4 ackLength 112bit
attr unit bit
par Scenario.node[5].nic.mac1609_4 useAcks false
par Scenario.node[5].nic.mac1609_4 frameErrorRate 0
par Scenario.node[5].nic.mac1609_4 ackErrorRate 0
scalar Scenario.node[5].nic.mac1609_4 ReceivedUnicastPackets 0
scalar Scenario.node[5].nic.mac1609_4 ReceivedBroadcasts 3135
scalar Scenario.node[5].nic.mac1609_4 SentPackets 456
scalar Scenario.node[5].nic.mac1609_4 SentAcknowledgements 0
scalar Scenario.node[5].nic.mac1609_4 RetriesExceeded 0
scalar Scenario.node[5].nic.mac1609_4 SNIRLostPackets 456
scalar Scenario.node[5].nic.mac1609_4 RXTXLostPackets 0
scalar Scenario.node[5].nic.mac1609_4 TotalLostPackets 456
scalar Scenario.node[5].nic.mac1609_4 DroppedPacketsInMac 0
scalar Scenario.node[5].nic.mac1609_4 TooLittleTime 0
scalar Scenario.node[5].nic.mac1609_4 TimesIntoBackoff 456
scalar Scenario.node[5].nic.mac1609_4 SlotsBackoff 672
scalar Scenario.node[5].nic.mac1609_4 NumInternalContention 0
scalar Scenario.node[5].nic.mac1609_4 totalBusyTime 0.421344
scalar Scenario.node[5].nic.mac1609_4 retriesExceeded:count 0
attr recordingmode count
attr source org_car2x_veins_modules_mac_sigRetriesExceeded
scalar Scenario.node[5].nic.mac1609_4 sentAcks:count 0
attr recordingmode count
attr source org_car2x_veins_modules_mac_sigSentAck
scalar Scenario.node[5].nic.mac1609_4 sentPackets:count 456
attr recordingmode count
attr source org_car2x_veins_modules_mac_sigSentPacket
scalar Scenario.node[5].nic.mac1609_4 collisions:count 0
attr recordingmode count
attr source org_car2x_veins_modules_mac_sigCollision
scalar Scenario.node[5].nic.mac1609_4 channelBusy:timeavg 0.0092399999999997
attr recordingmode timeavg
attr source org_car2x_veins_modules_mac_sigChannelBusy
par Scenario.node[5].nic typename "\"org.car2x.veins.modules.nic.Nic80211p\""
par Scenario.node[5].nic connectionManagerName "\"connectionManager\""
par Scenario.node[5].veinsmobility typename "\"org.car2x.veins.modules.mobility.traci.TraCIMobility\""
par Scenario.node[5].veinsmobility notAffectedByHostState true
par Scenario.node[5].veinsmobility x 0
par Scenario.node[5].veinsmobility y 0
par Scenario.node[5].veinsmobility z 1.895
par Scenario.node[5].veinsmobility xOrientation 1
par Scenario.node[5].veinsmobility yOrientation 0
par Scenario.node[5].veinsmobility zOrientation 0
par Scenario.node[5].veinsmobility hostPositionOffset 0m
attr unit m
par Scenario.node[5].veinsmobility setHostSpeed false
par Scenario.node[5].veinsmobility accidentCount 0
par Scenario.node[5].veinsmobility accidentStart 47.2543s
attr unit s
par Scenario.node[5].veinsmobility accidentDuration "uniform(30s, 60s)"
attr unit s
par Scenario.node[5].veinsmobility accidentInterval "uniform(30s, 60s)"
attr unit s
scalar Scenario.node[5].veinsmobility startTime 10.1
scalar Scenario.node[5].veinsmobility totalTime 45.5
scalar Scenario.node[5].veinsmobility stopTime 55.7
scalar Scenario.node[5].veinsmobility minSpeed 0
scalar Scenario.node[5].veinsmobility maxSpeed 12.540880144778
scalar Scenario.node[5].veinsmobility totalDistance 423.50339232838
scalar Scenario.node[5].veinsmobility totalCO2Emission 135.05348833359
par Scenario.node[5] typename "\"org.car2x.veins.nodes.Car\""
par Scenario.node[5] applType "\"TraCIDemo11p\""
par Scenario.node[5] nicType "\"Nic80211p\""
par Scenario.node[5] veinsmobilityType "\"org.car2x.veins.modules.mobility.traci.TraCIMobility\""
par Scenario.node[9].appl typename "\"org.car2x.veins.modules.application.traci.TraCIDemo11p\""
par Scenario.node[9].appl headerLength 80bit
attr unit bit
par Scenario.node[9].appl sendBeacons true
par Scenario.node[9].appl beaconLengthBits 256bit
attr unit bit
par Scenario.node[9].appl beaconUserPriority 7
par Scenario.node[9].appl beaconInterval 0.1s
attr unit s
par Scenario.node[9].appl dataLengthBits 1024bit
attr unit bit
par Scenario.node[9].appl dataOnSch false
par Scenario.node[9].appl dataUserPriority 7
par Scenario.node[9].appl avoidBeaconSynchronization true
par Scenario.node[9].appl sendWSA false
par Scenario.node[9].appl wsaLengthBits 250bit
attr unit bit
par Scenario.node[9].appl wsaInterval 1s
attr unit s
scalar Scenario.node[9].appl generatedWSMs 0
scalar Scenario.node[9].appl receivedWSMs 0
scalar Scenario.node[9].appl generatedBSMs 423
scalar Scenario.node[9].appl receivedBSMs 3128
scalar Scenario.node[9].appl generatedWSAs 0
scalar Scenario.node[9].appl receivedWSAs 0
par Scenario.node[9].nic.phy80211p typename "\"org.car2x.veins.modules.phy.PhyLayer80211p\""
par Scenario.node[9].nic.phy80211p recordStats false
par Scenario.node[9].nic.phy80211p usePropagationDelay true
par Scenario.node[9].nic.phy80211p noiseFloor -98dBm
attr unit dBm
par Scenario.node[9].nic.phy80211p useNoiseFloor true
par Scenario.node[9].nic.phy80211p antenna "<root>...</root> at content:1"
par Scenario.node[9].nic.phy80211p antennaOffsetX 0m
attr unit m
par Scenario.node[9].nic.phy80211p antennaOffsetY 0m
attr unit m
par Scenario.node[9].nic.phy80211p antennaOffsetZ 1.895m
attr unit m
par Scenario.node[9].nic.phy80211p antennaOffsetYaw 0rad
attr unit rad
par Scenario.node[9].nic.phy80211p analogueModels "<root>...</root> at /home/vagrant/spe-homework-project/Project/simulations//config_3.xml:2"
par Scenario.node[9].nic.phy80211p decider "<root>...</root> at /home/vagrant/spe-homework-project/Project/simulations//config_3.xml:2"
par Scenario.node[9].nic.phy80211p minPowerLevel -110dBm
attr unit dBm
par Scenario.node[9].nic.phy80211p timeRXToTX 0s
attr unit s
par Scenario.node[9].nic.phy80211p timeRXToSleep 0s
attr unit s
par Scenario.node[9].nic.phy80211p timeTXToRX 0s
attr unit s
par Scenario.node[9].nic.phy80211p timeTXToSleep 0s
attr unit s
par Scenario.node[9].nic.phy80211p timeSleepToRX 0s
attr unit s
par Scenario.node[9].nic.phy80211p timeSleepToTX 0s
attr unit s
par Scenario.node[9].nic.phy80211p initialRadioState 0
par Scenario.node[9].nic.phy80211p radioMinAtt 1
par Scenario.node[9].nic.phy80211p radioMaxAtt 0
par Scenario.node[9].nic.phy80211p nbRadioChannels 1
par Scenario.node[9].nic.phy80211p initialRadioChannel 0
par Scenario.node[9].nic.phy80211p ccaThreshold -65dBm
attr unit dBm
par Scenario.node[9].nic.phy80211p collectCollisionStatistics false
par Scenario.node[9].nic.phy80211p allowTxDuringRx false
scalar Scenario.node[9].nic.phy80211p busyTime 0.0084208037825056
par Scenario.node[9].nic.mac1609_4 typename "\"org.car2x.veins.modules.mac.ieee80211p.Mac1609_4\""
par Scenario.node[9].nic.mac1609_4 notAffectedByHostState false
par Scenario.node[9].nic.mac1609_4 headerLength 0bit
attr unit bit
par Scenario.node[9].nic.mac1609_4 address "\"auto\""
par Scenario.node[9].nic.mac1609_4 useServiceChannel false
par Scenario.node[9].nic.mac1609_4 serviceChannel 1
par Scenario.node[9].nic.mac1609_4 bitrate 6000000bps
attr unit bps
par Scenario.node[9].nic.mac1609_4 syncOffset 0.0003s
attr unit s
par Scenario.node[9].nic.mac1609_4 txPower 20mW
attr unit mW
par Scenario.node[9].nic.mac1609_4 queueSize 0
par Scenario.node[9].nic.mac1609_4 dot11RTSThreshold 12000bit
attr unit bit
par Scenario.node[9].nic.mac1609_4 dot11ShortRetryLimit 7
par Scenario.node[9].nic.mac1609_4 dot11LongRetryLimit 4
par Scenario.node[9].nic.mac1609_4 ackLength 112bit
attr unit bit
par Scenario.node[9].nic.mac1609_4 useAcks false
par Scenario.node[9].nic.mac1609_4 frameErrorRate 0
par Scenario.node[9].nic.mac1609_4 ackErrorRate 0
scalar Scenario.node[9].nic.mac1609_4 ReceivedUnicastPackets 0
scalar Scenario.node[9].nic.mac1609_4 ReceivedBroadcasts 3128
scalar Scenario.node[9].nic.mac1609_4 SentPackets 423
scalar Scenario.node[9].nic.mac1609_4 SentAcknowledgements 0
scalar Scenario.node[9].nic.mac1609_4 RetriesExceeded 0
scalar Scenario.node[9].nic.mac1609_4 SNIRLostPackets 297
scalar Scenario.node[9].nic.mac1609_4 RXTXLostPackets 0
scalar Scenario.node[9].nic.mac1609_4 TotalLostPackets 297
scalar Scenario.node[9].nic.mac1609_4 DroppedPacketsInMac 0
scalar Scenario.node[9].nic.mac1609_4 TooLittleTime 0
scalar Scenario.node[9].nic.mac1609_4 TimesIntoBackoff 423
scalar Scenario.node[9].nic.mac1609_4 SlotsBackoff 652
scalar Scenario.node[9].nic.mac1609_4 NumInternalContention 0
scalar Scenario.node[9].nic.mac1609_4 totalBusyTime 0.400615
scalar Scenario.node[9].nic.mac1609_4 retriesExceeded:count 0
attr recordingmode count
attr source org_car2x_veins_modules_mac_sigRetriesExceeded
scalar Scenario.node[9].nic.mac1609_4 sentAcks:count 0
attr recordingmode count
attr source org_car2x_veins_modules_mac_sigSentAck
scalar Scenario.node[9].nic.mac1609_4 sentPackets:count 423
attr recordingmode count
attr source org_car2x_veins_modules_mac_sigSentPacket
scalar Scenario.node[9].nic.mac1609_4 collisions:count 0
attr recordingmode count
attr source org_car2x_veins_modules_mac_sigCollision
scalar Scenario.node[9].nic.mac1609_4 channelBusy:timeavg 0.0094708037825057
attr recordingmode timeavg
attr source org_car2x_veins_modules_mac_sigChannelBusy
par Scenario.node[9].nic typename "\"org.car2x.veins.modules.nic.Nic80211p\""
par Scenario.node[9].nic connectionManagerName "\"connectionManager\""
par Scenario.node[9].veinsmobility typename "\"org.car2x.veins.modules.mobility.traci.TraCIMobility\""
par Scenario.node[9].veinsmobility notAffectedByHostState true
par Scenario.node[9].veinsmobility x 0
par Scenario.node[9].veinsmobility y 0
par Scenario.node[9].veinsmobility z 1.895
par Scenario.node[9].veinsmobility xOrientation 1
par Scenario.node[9].veinsmobility yOrientation 0
par Scenario.node[9].veinsmobility zOrientation 0
par Scenario.node[9].veinsmobility hostPositionOffset 0m
attr unit m
par Scenario.node[9].veinsmobility setHostSpeed false
par Scenario.node[9].veinsmobility accidentCount 0
par Scenario.node[9].veinsmobility accidentStart 59.8291s
attr unit s
par Scenario.node[9].veinsmobility accidentDuration "uniform(30s, 60s)"
attr unit s
par Scenario.node[9].veinsmobility accidentInterval "uniform(30s, 60s)"
attr unit s
scalar Scenario.node[9].veinsmobility startTime 18.1
scalar Scenario.node[9].veinsmobility totalTime 42.2
scalar Scenario.node[9].veinsmobility stopTime 60.4
scalar Scenario.node[9].veinsmobility minSpeed 0.24732027666783
scalar Scenario.node[9].veinsmobility maxSpeed 12.329356125683
scalar Scenario.node[9].veinsmobility totalDistance 427.94164768136
scalar Scenario.node[9].veinsmobility totalCO2Emission 125.12238252759
par Scenario.node[9] typename "\"org.car2x.veins.nodes.Car\""
par Scenario.node[9] applType "\"TraCIDemo11p\""
par Scenario.node[9] nicType "\"Nic80211p\""
par Scenario.node[9] veinsmobilityType "\"org.car2x.veins.modules.mobility.traci.TraCIMobility\""
par Scenario.node[12].appl typename "\"org.car2x.veins.modules.application.traci.TraCIDemo11p\""
par Scenario.node[12].appl headerLength 80bit
attr unit bit
par Scenario.node[12].appl sendBeacons true
par Scenario.node[12].appl beaconLengthBits 256bit
attr unit bit
par Scenario.node[12].appl beaconUserPriority 7
par Scenario.node[12].appl beaconInterval 0.1s
attr unit s
par Scenario.node[12].appl dataLengthBits 1024bit
attr unit bit
par Scenario.node[12].appl dataOnSch false
par Scenario.node[12].appl dataUserPriority 7
par Scenario.node[12].appl avoidBeaconSynchronization true
par Scenario.node[12].appl sendWSA false
par Scenario.node[12].appl wsaLengthBits 250bit
attr unit bit
par Scenario.node[12].appl wsaInterval 1s
attr unit s
scalar Scenario.node[12].appl generatedWSMs 0
scalar Scenario.node[12].appl receivedWSMs 0
scalar Scenario.node[12].appl generatedBSMs 387
scalar Scenario.node[12].appl receivedBSMs 3109
scalar Scenario.node[12].appl generatedWSAs 0
scalar Scenario.node[12].appl receivedWSAs 0
par Scenario.node[12].nic.phy80211p typename "\"org.car2x.veins.modules.phy.PhyLayer80211p\""
par Scenario.node[12].nic.phy80211p recordStats false
par Scenario.node[12].nic.phy80211p usePropagationDelay true
par Scenario.node[12].nic.phy80211p noiseFloor -98dBm
attr unit dBm
par Scenario.node[12].nic.phy80211p useNoiseFloor true
par Scenario.node[12].nic.phy80211p antenna "<root>...</root> at content:1"
par Scenario.node[12].nic.phy80211p antennaOffsetX 0m
attr unit m
par Scenario.node[12].nic.phy80211p antennaOffsetY 0m
attr unit m
par Scenario.node[12].nic.phy80211p antennaOffsetZ 1.895m
attr unit m
par Scenario.node[12].nic.phy80211p antennaOffsetYaw 0rad
attr unit rad
par Scenario.node[12].nic.phy80211p analogueModels "<root>...</root> at /home/vagrant/spe-homework-project/Project/simulations//config_3.xml:2"
par Scenario.node[12].nic.phy80211p decider "<root>...</root> at /home/vagrant/spe-homework-project/Project/simulations//config_3.xml:2"
par Scenario.node[12].nic.phy80211p minPowerLevel -110dBm
attr unit dBm
par Scenario.node[12].nic.phy80211p timeRXToTX 0s
attr unit s
par Scenario.node[12].nic.phy80211p timeRXToSleep 0s
attr unit s
par Scenario.node[12].nic.phy80211p timeTXToRX 0s
attr unit s
par Scenario.node[12].nic.phy80211p timeTXToSleep 0s
attr unit s
par Scenario.node[12].nic.phy80211p timeSleepToRX 0s
attr unit s
par Scenario.node[12].nic.phy80211p timeSleepToTX 0s
attr unit s
par Scenario.node[12].nic.phy80211p initialRadioState 0
par Scenario.node[12].nic.phy80211p radioMinAtt 1
par Scenario.node[12].nic.phy80211p radioMaxAtt 0
par Scenario.node[12].nic.phy80211p nbRadioChannels 1
par Scenario.node[12].nic.phy80211p initialRadioChannel 0
par Scenario.node[12].nic.phy80211p ccaThreshold -65dBm
attr unit dBm
par Scenario.node[12].nic.phy80211p collectCollisionStatistics false
par Scenario.node[12].nic.phy80211p allowTxDuringRx false
scalar Scenario.node[12].nic.phy80211p busyTime 0.0095615503875966
par Scenario.node[12].nic.mac1609_4 typename "\"org.car2x.veins.modules.mac.ieee80211p.Mac1609_4\""
par Scenario.node[12].nic.mac1609_4 notAffectedByHostState false
par Scenario.node[12].nic.mac1609_4 headerLength 0bit
attr unit bit
par Scenario.node[12].nic.mac1609_4 address "\"auto\""
par Scenario.node[12].nic.mac1609_4 useServiceChannel false
par Scenario.node[12].nic.mac1609_4 serviceChannel 1
par Scenario.node[12].nic.mac1609_4 bitrate 6000000bps
attr unit bps
par Scenario.node[12].nic.mac1609_4 syncOffset 0.0003s
attr unit s
par Scenario.node[12].nic.mac1609_4 txPower 20mW
attr unit mW
par Scenario.node[12].nic.mac1609_4 queueSize 0
par Scenario.node[12].nic.mac1609_4 dot11RTSThreshold 12000bit
attr unit bit
par Scenario.node[12].nic.mac1609_4 dot11ShortRetryLimit 7
par Scenario.node[12].nic.mac1609_4 dot11LongRetryLimit 4
par Scenario.node[12].nic.mac1609_4 ackLength 112bit
attr unit bit
par Scenario.node[12].nic.mac1609_4 useAcks false
par Scenario.node[12].nic.mac1609_4 frameErrorRate 0
par Scenario.node[12].nic.mac1609_4 ackErrorRate 0
scalar Scenario.node[12].nic.mac1609_4 ReceivedUnicastPackets 0
scalar Scenario.node[12].nic.mac1609_4 ReceivedBroadcasts 3109
scalar Scenario.node[12].nic.mac1609_4 SentPackets 387
scalar Scenario.node[12].nic.mac1609_4 SentAcknowledgements 0
scalar Scenario.node[12].nic.mac1609_4 RetriesExceeded 0
scalar Scenario.node[12].nic.mac1609_4 SNIRLostPackets 449
scalar Scenario.node[12].nic.mac1609_4 RXTXLostPackets 0
scalar Scenario.node[12].nic.mac1609_4 TotalLostPackets 449
scalar Scenario.node[12].nic.mac1609_4 DroppedPacketsInMac 0
scalar Scenario.node[12].nic.mac1609_4 TooLittleTime 0
scalar Scenario.node[12].nic.mac1609_4 TimesIntoBackoff 387
scalar Scenario.node[12].nic.mac1609_4 SlotsBackoff 593
scalar Scenario.node[12].nic.mac1609_4 NumInternalContention 0
scalar Scenario.node[12].nic.mac1609_4 totalBusyTime 0.407443
scalar Scenario.node[12].nic.mac1609_4 retriesExceeded:count 0
attr recordingmode count
attr source org_car2x_veins_modules_mac_sigRetriesExceeded
scalar Scenario.node[12].nic.mac1609_4 sentAcks:count 0
attr recordingmode count
attr source org_car2x_veins_modules_mac_sigSentAck
scalar Scenario.node[12].nic.mac1609_4 sentPackets:count 387
attr recordingmode count
attr source org_car2x_veins_modules_mac_sigSentPacket
scalar Scenario.node[12].nic.mac1609_4 collisions:count 0
attr recordingmode count
attr source org_car2x_veins_modules_mac_sigCollision
scalar Scenario.node[12].nic.mac1609_4 channelBusy:timeavg 0.010528242894057
attr recordingmode timeavg
attr source org_car2x_veins_modules_mac_sigChannelBusy
par Scenario.node[12].nic typename "\"org.car2x.veins.modules.nic.Nic80211p\""
par Scenario.node[12].nic connectionManagerName "\"connectionManager\""
par Scenario.node[12].veinsmobility typename "\"org.car2x.veins.modules.mobility.traci.TraCIMobility\""
par Scenario.node[12].veinsmobility notAffectedByHostState true
par Scenario.node[12].veinsmobility x 0
par Scenario.node[12].veinsmobility y 0
par Scenario.node[12].veinsmobility z 1.895
par Scenario.node[12].veinsmobility xOrientation 1
par Scenario.node[12].veinsmobility yOrientation 0
par Scenario.node[12].veinsmobility zOrientation 0
par Scenario.node[12].veinsmobility hostPositionOffset 0m
attr unit m
par Scenario.node[12].veinsmobility setHostSpeed false
par Scenario.node[12].veinsmobility accidentCount 0
par Scenario.node[12].veinsmobility accidentStart 32.3771s
attr unit s
par Scenario.node[12].veinsmobility accidentDuration "uniform(30s, 60s)"
attr unit s
par Scenario.node[12].veinsmobility accidentInterval "uniform(30s, 60s)"
attr unit s
scalar Scenario.node[12].veinsmobility startTime 24.1
scalar Scenario.node[12].veinsmobility totalTime 38.6
scalar Scenario.node[12].veinsmobility stopTime 62.8
scalar Scenario.node[12].veinsmobility minSpeed 0.25025487744948
scalar Scenario.node[12].veinsmobility maxSpeed 13.328782822775
scalar Scenario.node[12].veinsmobility totalDistance 419.77587971924
scalar Scenario.node[12].veinsmobility totalCO2Emission 117.38613370001
par Scenario.node[12] typename "\"org.car2x.veins.nodes.Car\""
par Scenario.node[12] applType "\"TraCIDemo11p\""
par Scenario.node[12] nicType "\"Nic80211p\""
par Scenario.node[12] veinsmobilityType "\"org.car2x.veins.modules.mobility.traci.TraCIMobility\""
par Scenario.node[4].appl typename "\"org.car2x.veins.modules.application.traci.TraCIDemo11p\""
par Scenario.node[4].appl headerLength 80bit
attr unit bit
par Scenario.node[4].appl sendBeacons true
par Scenario.node[4].appl beaconLengthBits 256bit
attr unit bit
par Scenario.node[4].appl beaconUserPriority 7
par Scenario.node[4].appl beaconInterval 0.1s
attr unit s
par Scenario.node[4].appl dataLengthBits 1024bit
attr unit bit
par Scenario.node[4].appl dataOnSch false
par Scenario.node[4].appl dataUserPriority 7
par Scenario.node[4].appl avoidBeaconSynchronization true
par Scenario.node[4].appl sendWSA false
par Scenario.node[4].appl wsaLengthBits 250bit
attr unit bit
par Scenario.node[4].appl wsaInterval 1s
attr unit s
scalar Scenario.node[4].appl generatedWSMs 0
scalar Scenario.node[4].appl receivedWSMs 0
scalar Scenario.node[4].appl generatedBSMs 555
scalar Scenario.node[4].appl receivedBSMs 2494
scalar Scenario.node[4].appl generatedWSAs 0
scalar Scenario.node[4].appl receivedWSAs 0
par Scenario.node[4].nic.phy80211p typename "\"org.car2x.veins.modules.phy.PhyLayer80211p\""
par Scenario.node[4].nic.phy80211p recordStats false
par Scenario.node[4].nic.phy80211p usePropagationDelay true
par Scenario.node[4].nic.phy80211p noiseFloor -98dBm
attr unit dBm
par Scenario.node[4].nic.phy80211p useNoiseFloor true
par Scenario.node[4].nic.phy80211p antenna "<root>...</root> at content:1"
par Scenario.node[4].nic.phy80211p antennaOffsetX 0m
attr unit m
par Scenario.node[4].nic.phy80211p antennaOffsetY 0m
attr unit m
par Scenario.node[4].nic.phy80211p antennaOffsetZ 1.895m
attr unit m
par Scenario.node[4].nic.phy80211p antennaOffsetYaw 0rad
attr unit rad
par Scenario.node[4].nic.phy80211p analogueModels "<root>...</root> at /home/vagrant/spe-homework-project/Project/simulations//config_3.xml:2"
par Scenario.node[4].nic.phy80211p decider "<root>...</root> at /home/vagrant/spe-homework-project/Project/simulations//config_3.xml:2"
par Scenario.node[4].nic.phy80211p minPowerLevel -110dBm
attr unit dBm
par Scenario.node[4].nic.phy80211p timeRXToTX 0s
attr unit s
par Scenario.node[4].nic.phy80211p timeRXToSleep 0s
attr unit s
par Scenario.node[4].nic.phy80211p timeTXToRX 0s
attr unit s
par Scenario.node[4].nic.phy80211p timeTXToSleep 0s
attr unit s
par Scenario.node[4].nic.phy80211p timeSleepToRX 0s
attr unit s
par Scenario.node[4].nic.phy80211p timeSleepToTX 0s
attr unit s
par Scenario.node[4].nic.phy80211p initialRadioState 0
par Scenario.node[4].nic.phy80211p radioMinAtt 1
par Scenario.node[4].nic.phy80211p radioMaxAtt 0
par Scenario.node[4].nic.phy80211p nbRadioChannels 1
par Scenario.node[4].nic.phy80211p initialRadioChannel 0
par Scenario.node[4].nic.phy80211p ccaThreshold -65dBm
attr unit dBm
par Scenario.node[4].nic.phy80211p collectCollisionStatistics false
par Scenario.node[4].nic.phy80211p allowTxDuringRx false
scalar Scenario.node[4].nic.phy80211p busyTime 0.0052074954954954
par Scenario.node[4].nic.mac1609_4 typename "\"org.car2x.veins.modules.mac.ieee80211p.Mac1609_4\""
par Scenario.node[4].nic.mac1609_4 notAffectedByHostState false
par Scenario.node[4].nic.mac1609_4 headerLength 0bit
attr unit bit
par Scenario.node[4].nic.mac1609_4 address "\"auto\""
par Scenario.node[4].nic.mac1609_4 useServiceChannel false
par Scenario.node[4].nic.mac1609_4 serviceChannel 1
par Scenario.node[4].nic.mac1609_4 bitrate 6000000bps
attr unit bps
par Scenario.node[4].nic.mac1609_4 syncOffset 0.0003s
attr unit s
par Scenario.node[4].nic.mac1609_4 txPower 20mW
attr unit mW
par Scenario.node[4].nic.mac1609_4 queueSize 0
par Scenario.node[4].nic.mac1609_4 dot11RTSThreshold 12000bit
attr unit bit
par Scenario.node[4].nic.mac1609_4 dot11ShortRetryLimit 7
par Scenario.node[4].nic.mac1609_4 dot11LongRetryLimit 4
par Scenario.node[4].nic.mac1609_4 ackLength 112bit
attr unit bit
par Scenario.node[4].nic.mac1609_4 useAcks false
par Scenario.node[4].nic.mac1609_4 frameErrorRate 0
par Scenario.node[4].nic.mac1609_4 ackErrorRate 0
scalar Scenario.node[4].nic.mac1609_4 ReceivedUnicastPackets 0
scalar Scenario.node[4].nic.mac1609_4 ReceivedBroadcasts 2494
scalar Scenario.node[4].nic.mac1609_4 SentPackets 555
scalar Scenario.node[4].nic.mac1609_4 SentAcknowledgements 0
scalar Scenario.node[4].nic.mac1609_4 RetriesExceeded 0
scalar Scenario.node[4].nic.mac1609_4 SNIRLostPackets 285
scalar Scenario.node[4].nic.mac1609_4 RXTXLostPackets 0
scalar Scenario.node[4].nic.mac1609_4 TotalLostPackets 285
scalar Scenario.node[4].nic.mac1609_4 DroppedPacketsInMac 0
scalar Scenario.node[4].nic.mac1609_4 TooLittleTime 0
scalar Scenario.node[4].nic.mac1609_4 TimesIntoBackoff 555
scalar Scenario.node[4].nic.mac1609_4 SlotsBackoff 830
scalar Scenario.node[4].nic.mac1609_4 NumInternalContention 0
scalar Scenario.node[4].nic.mac1609_4 totalBusyTime 0.347291
scalar Scenario.node[4].nic.mac1609_4 retriesExceeded:count 0
attr recordingmode count
attr source org_car2x_veins_modules_mac_sigRetriesExceeded
scalar Scenario.node[4].nic.mac1609_4 sentAcks:count 0
attr recordingmode count
attr source org_car2x_veins_modules_mac_sigSentAck
scalar Scenario.node[4].nic.mac1609_4 sentPackets:count 555
attr recordingmode count
attr source org_car2x_veins_modules_mac_sigSentPacket
scalar Scenario.node[4].nic.mac1609_4 collisions:count 0
attr recordingmode count
attr source org_car2x_veins_modules_mac_sigCollision
scalar Scenario.node[4].nic.mac1609_4 channelBusy:timeavg 0.0062574954954953
attr recordingmode timeavg
attr source org_car2x_veins_modules_mac_sigChannelBusy
par Scenario.node[4].nic typename "\"org.car2x.veins.modules.nic.Nic80211p\""
par Scenario.node[4].nic connectionManagerName "\"connectionManager\""
par Scenario.node[4].veinsmobility typename "\"org.car2x.veins.modules.mobility.traci.TraCIMobility\""
par Scenario.node[4].veinsmobility notAffectedByHostState true
par Scenario.node[4].veinsmobility x 0
par Scenario.node[4].veinsmobility y 0
par Scenario.node[4].veinsmobility z 1.895
par Scenario.node[4].veinsmobility xOrientation 1
par Scenario.node[4].veinsmobility yOrientation 0
par Scenario.node[4].veinsmobility zOrientation 0
par Scenario.node[4].veinsmobility hostPositionOffset 0m
attr unit m
par Scenario.node[4].veinsmobility setHostSpeed false
par Scenario.node[4].veinsmobility accidentCount 0
par Scenario.node[4].veinsmobility accidentStart 50.312s
attr unit s
par Scenario.node[4].veinsmobility accidentDuration "uniform(30s, 60s)"
attr unit s
par Scenario.node[4].veinsmobility accidentInterval "uniform(30s, 60s)"
attr unit s
scalar Scenario.node[4].veinsmobility startTime 8.1
scalar Scenario.node[4].veinsmobility totalTime 55.4
scalar Scenario.node[4].veinsmobility stopTime 63.6
scalar Scenario.node[4].veinsmobility minSpeed 0.25936657659966
scalar Scenario.node[4].veinsmobility maxSpeed 13.545572292946
scalar Scenario.node[4].veinsmobility totalDistance 564.09862235177
scalar Scenario.node[4].veinsmobility totalCO2Emission 183.8619910197
par Scenario.node[4] typename "\"org.car2x.veins.nodes.Car\""
par Scenario.node[4] applType "\"TraCIDemo11p\""
par Scenario.node[4] nicType "\"Nic80211p\""
par Scenario.node[4] veinsmobilityType "\"org.car2x.veins.modules.mobility.traci.TraCIMobility\""
par Scenario.node[6].appl typename "\"org.car2x.veins.modules.application.traci.TraCIDemo11p\""
par Scenario.node[6].appl headerLength 80bit
attr unit bit
par Scenario.node[6].appl sendBeacons true
par Scenario.node[6].appl beaconLengthBits 256bit
attr unit bit
par Scenario.node[6].appl beaconUserPriority 7
par Scenario.node[6].appl beaconInterval 0.1s
attr unit s
par Scenario.node[6].appl dataLengthBits 1024bit
attr unit bit
par Scenario.node[6].appl dataOnSch false
par Scenario.node[6].appl dataUserPriority 7
par Scenario.node[6].appl avoidBeaconSynchronization true
par Scenario.node[6].appl sendWSA false
par Scenario.node[6].appl wsaLengthBits 250bit
attr unit bit
par Scenario.node[6].appl wsaInterval 1s
attr unit s
scalar Scenario.node[6].appl generatedWSMs 0
scalar Scenario.node[6].appl receivedWSMs 0
scalar Scenario.node[6].appl generatedBSMs 565
scalar Scenario.node[6].appl receivedBSMs 3873
scalar Scenario.node[6].appl generatedWSAs 0
scalar Scenario.node[6].appl receivedWSAs 0
par Scenario.node[6].nic.phy80211p typename "\"org.car2x.veins.modules.phy.PhyLayer80211p\""
par Scenario.node[6].nic.phy80211p recordStats false
par Scenario.node[6].nic.phy80211p usePropagationDelay true
par Scenario.node[6].nic.phy80211p noiseFloor -98dBm
attr unit dBm
par Scenario.node[6].nic.phy80211p useNoiseFloor true
par Scenario.node[6].nic.phy80211p antenna "<root>...</root> at content:1"
par Scenario.node[6].nic.phy80211p antennaOffsetX 0m
attr unit m
par Scenario.node[6].nic.phy80211p antennaOffsetY 0m
attr unit m
par Scenario.node[6].nic.phy80211p antennaOffsetZ 1.895m
attr unit m
par Scenario.node[6].nic.phy80211p antennaOffsetYaw 0rad
attr unit rad
par Scenario.node[6].nic.phy80211p analogueModels "<root>...</root> at /home/vagrant/spe-homework-project/Project/simulations//config_3.xml:2"
par Scenario.node[6].nic.phy80211p decider "<root>...</root> at /home/vagrant/spe-homework-project/Project/simulations//config_3.xml:2"
par Scenario.node[6].nic.phy80211p minPowerLevel -110dBm
attr unit dBm
par Scenario.node[6].nic.phy80211p timeRXToTX 0s
attr unit s
par Scenario.node[6].nic.phy80211p timeRXToSleep 0s
attr unit s
par Scenario.node[6].nic.phy80211p timeTXToRX 0s
attr unit s
par Scenario.node[6].nic.phy80211p timeTXToSleep 0s
attr unit s
par Scenario.node[6].nic.phy80211p timeSleepToRX 0s
attr unit s
par Scenario.node[6].nic.phy80211p timeSleepToTX 0s
attr unit s
par Scenario.node[6].nic.phy80211p initialRadioState 0
par Scenario.node[6].nic.phy80211p radioMinAtt 1
par Scenario.node[6].nic.phy80211p radioMaxAtt 0
par Scenario.node[6].nic.phy80211p nbRadioChannels 1
par Scenario.node[6].nic.phy80211p initialRadioChannel 0
par Scenario.node[6].nic.phy80211p ccaThreshold -65dBm
attr unit dBm
par Scenario.node[6].nic.phy80211p collectCollisionStatistics false
par Scenario.node[6].nic.phy80211p allowTxDuringRx false
scalar Scenario.node[6].nic.phy80211p busyTime 0.0083881061946899
par Scenario.node[6].nic.mac1609_4 typename "\"org.car2x.veins.modules.mac.ieee80211p.Mac1609_4\""
par Scenario.node[6].nic.mac1609_4 notAffectedByHostState false
par Scenario.node[6].nic.mac1609_4 headerLength 0bit
attr unit bit
par Scenario.node[6].nic.mac1609_4 address "\"auto\""
par Scenario.node[6].nic.mac1609_4 useServiceChannel false
par Scenario.node[6].nic.mac1609_4 serviceChannel 1
par Scenario.node[6].nic.mac1609_4 bitrate 6000000bps
attr unit bps
par Scenario.node[6].nic.mac1609_4 syncOffset 0.0003s
attr unit s
par Scenario.node[6].nic.mac1609_4 txPower 20mW
attr unit mW
par Scenario.node[6].nic.mac1609_4 queueSize 0
par Scenario.node[6].nic.mac1609_4 dot11RTSThreshold 12000bit
attr unit bit
par Scenario.node[6].nic.mac1609_4 dot11ShortRetryLimit 7
par Scenario.node[6].nic.mac1609_4 dot11LongRetryLimit 4
par Scenario.node[6].nic.mac1609_4 ackLength 112bit
attr unit bit
par Scenario.node[6].nic.mac1609_4 useAcks false
par Scenario.node[6].nic.mac1609_4 frameErrorRate 0
par Scenario.node[6].nic.mac1609_4 ackErrorRate 0
scalar Scenario.node[6].nic.mac1609_4 ReceivedUnicastPackets 0
scalar Scenario.node[6].nic.mac1609_4 ReceivedBroadcasts 3873
scalar Scenario.node[6].nic.mac1609_4 SentPackets 565
scalar Scenario.node[6].nic.mac1609_4 SentAcknowledgements 0
scalar Scenario.node[6].nic.mac1609_4 RetriesExceeded 0
scalar Scenario.node[6].nic.mac1609_4 SNIRLostPackets 684
scalar Scenario.node[6].nic.mac1609_4 RXTXLostPackets 0
scalar Scenario.node[6].nic.mac1609_4 TotalLostPackets 684
scalar Scenario.node[6].nic.mac1609_4 DroppedPacketsInMac 0
scalar Scenario.node[6].nic.mac1609_4 TooLittleTime 0
scalar Scenario.node[6].nic.mac1609_4 TimesIntoBackoff 704
scalar Scenario.node[6].nic.mac1609_4 SlotsBackoff 1110
scalar Scenario.node[6].nic.mac1609_4 NumInternalContention 0
scalar Scenario.node[6].nic.mac1609_4 totalBusyTime 0.533253
scalar Scenario.node[6].nic.mac1609_4 retriesExceeded:count 0
attr recordingmode count
attr source org_car2x_veins_modules_mac_sigRetriesExceeded
scalar Scenario.node[6].nic.mac1609_4 sentAcks:count 0
attr recordingmode count
attr source org_car2x_veins_modules_mac_sigSentAck
scalar Scenario.node[6].nic.mac1609_4 sentPackets:count 565
attr recordingmode count
attr source org_car2x_veins_modules_mac_sigSentPacket
scalar Scenario.node[6].nic.mac1609_4 collisions:count 0
attr recordingmode count
attr source org_car2x_veins_modules_mac_sigCollision
scalar Scenario.node[6].nic.mac1609_4 channelBusy:timeavg 0.00943810619469
attr recordingmode timeavg
attr source org_car2x_veins_modules_mac_sigChannelBusy
par Scenario.node[6].nic typename "\"org.car2x.veins.modules.nic.Nic80211p\""
par Scenario.node[6].nic connectionManagerName "\"connectionManager\""
par Scenario.node[6].veinsmobility typename "\"org.car2x.veins.modules.mobility.traci.TraCIMobility\""
par Scenario.node[6].veinsmobility notAffectedByHostState true
par Scenario.node[6].veinsmobility x 0
par Scenario.node[6].veinsmobility y 0
par Scenario.node[6].veinsmobility z 1.895
par Scenario.node[6].veinsmobility xOrientation 1
par Scenario.node[6].veinsmobility yOrientation 0
par Scenario.node[6].veinsmobility zOrientation 0
par Scenario.node[6].veinsmobility hostPositionOffset 0m
attr unit m
par Scenario.node[6].veinsmobility setHostSpeed false
par Scenario.node[6].veinsmobility accidentCount 0
par Scenario.node[6].veinsmobility accidentStart 42.2128s
attr unit s
par Scenario.node[6].veinsmobility accidentDuration "uniform(30s, 60s)"
attr unit s
par Scenario.node[6].veinsmobility accidentInterval "uniform(30s, 60s)"
attr unit s
scalar Scenario.node[6].veinsmobility startTime 12.1
scalar Scenario.node[6].veinsmobility totalTime 56.4
scalar Scenario.node[6].veinsmobility stopTime 68.6
scalar Scenario.node[6].veinsmobility minSpeed 0.25499794953014
scalar Scenario.node[6].veinsmobility maxSpeed 12.027159955782
scalar Scenario.node[6].veinsmobility totalDistance 573.84546763126
scalar Scenario.node[6].veinsmobility totalCO2Emission 153.72892918407
par Scenario.node[6] typename "\"org.car2x.veins.nodes.Car\""
par Scenario.node[6] applType "\"TraCIDemo11p\""
par Scenario.node[6] nicType "\"Nic80211p\""
par Scenario.node[6] veinsmobilityType "\"org.car2x.veins.modules.mobility.traci.TraCIMobility\""
par Scenario.node[22].appl typename "\"org.car2x.veins.modules.application.traci.TraCIDemo11p\""
par Scenario.node[22].appl headerLength 80bit
attr unit bit
par Scenario.node[22].appl sendBeacons true
par Scenario.node[22].appl beaconLengthBits 256bit
attr unit bit
par Scenario.node[22].appl beaconUserPriority 7
par Scenario.node[22].appl beaconInterval 0.1s
attr unit s
par Scenario.node[22].appl dataLengthBits 1024bit
attr unit bit
par Scenario.node[22].appl dataOnSch false
par Scenario.node[22].appl dataUserPriority 7
par Scenario.node[22].appl avoidBeaconSynchronization true
par Scenario.node[22].appl sendWSA false
par Scenario.node[22].appl wsaLengthBits 250bit
attr unit bit
par Scenario.node[22].appl wsaInterval 1s
attr unit s
scalar Scenario.node[22].appl generatedWSMs 0
scalar Scenario.node[22].appl receivedWSMs 0
scalar Scenario.node[22].appl generatedBSMs 272
scalar Scenario.node[22].appl receivedBSMs 1347
scalar Scenario.node[22].appl generatedWSAs 0
scalar Scenario.node[22].appl receivedWSAs 0
par Scenario.node[22].nic.phy80211p typename "\"org.car2x.veins.modules.phy.PhyLayer80211p\""
par Scenario.node[22].nic.phy80211p recordStats false
par Scenario.node[22].nic.phy80211p usePropagationDelay true
par Scenario.node[22].nic.phy80211p noiseFloor -98dBm
attr unit dBm
par Scenario.node[22].nic.phy80211p useNoiseFloor true
par Scenario.node[22].nic.phy80211p antenna "<root>...</root> at content:1"
par Scenario.node[22].nic.phy80211p antennaOffsetX 0m
attr unit m
par Scenario.node[22].nic.phy80211p antennaOffsetY 0m
attr unit m
par Scenario.node[22].nic.phy80211p antennaOffsetZ 1.895m
attr unit m
par Scenario.node[22].nic.phy80211p antennaOffsetYaw 0rad
attr unit rad
par Scenario.node[22].nic.phy80211p analogueModels "<root>...</root> at /home/vagrant/spe-homework-project/Project/simulations//config_3.xml:2"
par Scenario.node[22].nic.phy80211p decider "<root>...</root> at /home/vagrant/spe-homework-project/Project/simulations//config_3.xml:2"
par Scenario.node[22].nic.phy80211p minPowerLevel -110dBm
attr unit dBm
par Scenario.node[22].nic.phy80211p timeRXToTX 0s
attr unit s
par Scenario.node[22].nic.phy80211p timeRXToSleep 0s
attr unit s
par Scenario.node[22].nic.phy80211p timeTXToRX 0s
attr unit s
par Scenario.node[22].nic.phy80211p timeTXToSleep 0s
attr unit s
par Scenario.node[22].nic.phy80211p timeSleepToRX 0s
attr unit s
par Scenario.node[22].nic.phy80211p timeSleepToTX 0s
attr unit s
par Scenario.node[22].nic.phy80211p initialRadioState 0
par Scenario.node[22].nic.phy80211p radioMinAtt 1
par Scenario.node[22].nic.phy80211p radioMaxAtt 0
par Scenario.node[22].nic.phy80211p nbRadioChannels 1
par Scenario.node[22].nic.phy80211p initialRadioChannel 0
par Scenario.node[22].nic.phy80211p ccaThreshold -65dBm
attr unit dBm
par Scenario.node[22].nic.phy80211p collectCollisionStatistics false
par Scenario.node[22].nic.phy80211p allowTxDuringRx false
scalar Scenario.node[22].nic.phy80211p busyTime 0.0056588235294118
par Scenario.node[22].nic.mac1609_4 typename "\"org.car2x.veins.modules.mac.ieee80211p.Mac1609_4\""
par Scenario.node[22].nic.mac1609_4 notAffectedByHostState false
par Scenario.node[22].nic.mac1609_4 headerLength 0bit
attr unit bit
par Scenario.node[22].nic.mac1609_4 address "\"auto\""
par Scenario.node[22].nic.mac1609_4 useServiceChannel false
par Scenario.node[22].nic.mac1609_4 serviceChannel 1
par Scenario.node[22].nic.mac1609_4 bitrate 6000000bps
attr unit bps
par Scenario.node[22].nic.mac1609_4 syncOffset 0.0003s
attr unit s
par Scenario.node[22].nic.mac1609_4 txPower 20mW
attr unit mW
par Scenario.node[22].nic.mac1609_4 queueSize 0
par Scenario.node[22].nic.mac1609_4 dot11RTSThreshold 12000bit
attr unit bit
par Scenario.node[22].nic.mac1609_4 dot11ShortRetryLimit 7
par Scenario.node[22].nic.mac1609_4 dot11LongRetryLimit 4
par Scenario.node[22].nic.mac1609_4 ackLength 112bit
attr unit bit
par Scenario.node[22].nic.mac1609_4 useAcks false
par Scenario.node[22].nic.mac1609_4 frameErrorRate 0
par Scenario.node[22].nic.mac1609_4 ackErrorRate 0
scalar Scenario.node[22].nic.mac1609_4 ReceivedUnicastPackets 0
scalar Scenario.node[22].nic.mac1609_4 ReceivedBroadcasts 1347
scalar Scenario.node[22].nic.mac1609_4 SentPackets 272
scalar Scenario.node[22].nic.mac1609_4 SentAcknowledgements 0
scalar Scenario.node[22].nic.mac1609_4 RetriesExceeded 0
scalar Scenario.node[22].nic.mac1609_4 SNIRLostPackets 133
scalar Scenario.node[22].nic.mac1609_4 RXTXLostPackets 0
scalar Scenario.node[22].nic.mac1609_4 TotalLostPackets 133
scalar Scenario.node[22].nic.mac1609_4 DroppedPacketsInMac 0
scalar Scenario.node[22].nic.mac1609_4 TooLittleTime 0
scalar Scenario.node[22].nic.mac1609_4 TimesIntoBackoff 272
scalar Scenario.node[22].nic.mac1609_4 SlotsBackoff 386
scalar Scenario.node[22].nic.mac1609_4 NumInternalContention 0
scalar Scenario.node[22].nic.mac1609_4 totalBusyTime 0.18248
scalar Scenario.node[22].nic.mac1609_4 retriesExceeded:count 0
attr recordingmode count
attr source org_car2x_veins_modules_mac_sigRetriesExceeded
scalar Scenario.node[22].nic.mac1609_4 sentAcks:count 0
attr recordingmode count
attr source org_car2x_veins_modules_mac_sigSentAck
scalar Scenario.node[22].nic.mac1609_4 sentPackets:count 272
attr recordingmode count
attr source org_car2x_veins_modules_mac_sigSentPacket
scalar Scenario.node[22].nic.mac1609_4 collisions:count 0
attr recordingmode count
attr source org_car2x_veins_modules_mac_sigCollision
scalar Scenario.node[22].nic.mac1609_4 channelBusy:timeavg 0.0067088235294117
attr recordingmode timeavg
attr source org_car2x_veins_modules_mac_sigChannelBusy
par Scenario.node[22].nic typename "\"org.car2x.veins.modules.nic.Nic80211p\""
par Scenario.node[22].nic connectionManagerName "\"connectionManager\""
par Scenario.node[22].veinsmobility typename "\"org.car2x.veins.modules.mobility.traci.TraCIMobility\""
par Scenario.node[22].veinsmobility notAffectedByHostState true
par Scenario.node[22].veinsmobility x 0
par Scenario.node[22].veinsmobility y 0
par Scenario.node[22].veinsmobility z 1.895
par Scenario.node[22].veinsmobility xOrientation 1
par Scenario.node[22].veinsmobility yOrientation 0
par Scenario.node[22].veinsmobility zOrientation 0
par Scenario.node[22].veinsmobility hostPositionOffset 0m
attr unit m
par Scenario.node[22].veinsmobility setHostSpeed false
par Scenario.node[22].veinsmobility accidentCount 0
par Scenario.node[22].veinsmobility accidentStart 30.1725s
attr unit s
par Scenario.node[22].veinsmobility accidentDuration "uniform(30s, 60s)"
attr unit s
par Scenario.node[22].veinsmobility accidentInterval "uniform(30s, 60s)"
attr unit s
scalar Scenario.node[22].veinsmobility startTime 44.1
scalar Scenario.node[22].veinsmobility totalTime 27.1
scalar Scenario.node[22].veinsmobility stopTime 71.3
scalar Scenario.node[22].veinsmobility minSpeed 0.25154513483448
scalar Scenario.node[22].veinsmobility maxSpeed 13.085725830217
scalar Scenario.node[22].veinsmobility totalDistance 281.33376825186
scalar Scenario.node[22].veinsmobility totalCO2Emission 87.664095474223
par Scenario.node[22] typename "\"org.car2x.veins.nodes.Car\""
par Scenario.node[22] applType "\"TraCIDemo11p\""
par Scenario.node[22] nicType "\"Nic80211p\""
par Scenario.node[22] veinsmobilityType "\"org.car2x.veins.modules.mobility.traci.TraCIMobility\""
par Scenario.node[23].appl typename "\"org.car2x.veins.modules.application.traci.TraCIDemo11p\""
par Scenario.node[23].appl headerLength 80bit
attr unit bit
par Scenario.node[23].appl sendBeacons true
par Scenario.node[23].appl beaconLengthBits 256bit
attr unit bit
par Scenario.node[23].appl beaconUserPriority 7
par Scenario.node[23].appl beaconInterval 0.1s
attr unit s
par Scenario.node[23].appl dataLengthBits 1024bit
attr unit bit
par Scenario.node[23].appl dataOnSch false
par Scenario.node[23].appl dataUserPriority 7
par Scenario.node[23].appl avoidBeaconSynchronization true
par Scenario.node[23].appl sendWSA false
par Scenario.node[23].appl wsaLengthBits 250bit
attr unit bit
par Scenario.node[23].appl wsaInterval 1s
attr unit s
scalar Scenario.node[23].appl generatedWSMs 0
scalar Scenario.node[23].appl receivedWSMs 0
scalar Scenario.node[23].appl generatedBSMs 257
scalar Scenario.node[23].appl receivedBSMs 2513
scalar Scenario.node[23].appl generatedWSAs 0
scalar Scenario.node[23].appl receivedWSAs 0
par Scenario.node[23].nic.phy80211p typename "\"org.car2x.veins.modules.phy.PhyLayer80211p\""
par Scenario.node[23].nic.phy80211p recordStats false
par Scenario.node[23].nic.phy80211p usePropagationDelay true
par Scenario.node[23].nic.phy80211p noiseFloor -98dBm
attr unit dBm
par Scenario.node[23].nic.phy80211p useNoiseFloor true
par Scenario.node[23].nic.phy80211p antenna "<root>...</root> at content:1"
par Scenario.node[23].nic.phy80211p antennaOffsetX 0m
attr unit m
par Scenario.node[23].nic.phy80211p antennaOffsetY 0m
attr unit m
par Scenario.node[23].nic.phy80211p antennaOffsetZ 1.895m
attr unit m
par Scenario.node[23].nic.phy80211p antennaOffsetYaw 0rad
attr unit rad
par Scenario.node[23].nic.phy80211p analogueModels "<root>...</root> at /home/vagrant/spe-homework-project/Project/simulations//config_3.xml:2"
par Scenario.node[23].nic.phy80211p decider "<root>...</root> at /home/vagrant/spe-homework-project/Project/simulations//config_3.xml:2"
par Scenario.node[23].nic.phy80211p minPowerLevel -110dBm
attr unit dBm
par Scenario.node[23].nic.phy80211p timeRXToTX 0s
attr unit s
par Scenario.node[23].nic.phy80211p timeRXToSleep 0s
attr unit s
par Scenario.node[23].nic.phy80211p timeTXToRX 0s
attr unit s
par Scenario.node[23].nic.phy80211p timeTXToSleep 0s
attr unit s
par Scenario.node[23].nic.phy80211p timeSleepToRX 0s
attr unit s
par Scenario.node[23].nic.phy80211p timeSleepToTX 0s
attr unit s
par Scenario.node[23].nic.phy80211p initialRadioState 0
par Scenario.node[23].nic.phy80211p radioMinAtt 1
par Scenario.node[23].nic.phy80211p radioMaxAtt 0
par Scenario.node[23].nic.phy80211p nbRadioChannels 1
par Scenario.node[23].nic.phy80211p initialRadioChannel 0
par Scenario.node[23].nic.phy80211p ccaThreshold -65dBm
attr unit dBm
par Scenario.node[23].nic.phy80211p collectCollisionStatistics false
par Scenario.node[23].nic.phy80211p allowTxDuringRx false
scalar Scenario.node[23].nic.phy80211p busyTime 0.012156264591439
par Scenario.node[23].nic.mac1609_4 typename "\"org.car2x.veins.modules.mac.ieee80211p.Mac1609_4\""
par Scenario.node[23].nic.mac1609_4 notAffectedByHostState false
par Scenario.node[23].nic.mac1609_4 headerLength 0bit
attr unit bit
par Scenario.node[23].nic.mac1609_4 address "\"auto\""
par Scenario.node[23].nic.mac1609_4 useServiceChannel false
par Scenario.node[23].nic.mac1609_4 serviceChannel 1
par Scenario.node[23].nic.mac1609_4 bitrate 6000000bps
attr unit bps
par Scenario.node[23].nic.mac1609_4 syncOffset 0.0003s
attr unit s
par Scenario.node[23].nic.mac1609_4 txPower 20mW
attr unit mW
par Scenario.node[23].nic.mac1609_4 queueSize 0
par Scenario.node[23].nic.mac1609_4 dot11RTSThreshold 12000bit
attr unit bit
par Scenario.node[23].nic.mac1609_4 dot11ShortRetryLimit 7
par Scenario.node[23].nic.mac1609_4 dot11LongRetryLimit 4
par Scenario.node[23].nic.mac1609_4 ackLength 112bit
attr unit bit
par Scenario.node[23].nic.mac1609_4 useAcks false
par Scenario.node[23].nic.mac1609_4 frameErrorRate 0
par Scenario.node[23].nic.mac1609_4 ackErrorRate 0
scalar Scenario.node[23].nic.mac1609_4 ReceivedUnicastPackets 0
scalar Scenario.node[23].nic.mac1609_4 ReceivedBroadcasts 2513
scalar Scenario.node[23].nic.mac1609_4 SentPackets 257
scalar Scenario.node[23].nic.mac1609_4 SentAcknowledgements 0
scalar Scenario.node[23].nic.mac1609_4 RetriesExceeded 0
scalar Scenario.node[23].nic.mac1609_4 SNIRLostPackets 491
scalar Scenario.node[23].nic.mac1609_4 RXTXLostPackets 0
scalar Scenario.node[23].nic.mac1609_4 TotalLostPackets 491
scalar Scenario.node[23].nic.mac1609_4 DroppedPacketsInMac 0
scalar Scenario.node[23].nic.mac1609_4 TooLittleTime 0
scalar Scenario.node[23].nic.mac1609_4 TimesIntoBackoff 257
scalar Scenario.node[23].nic.mac1609_4 SlotsBackoff 384
scalar Scenario.node[23].nic.mac1609_4 NumInternalContention 0
scalar Scenario.node[23].nic.mac1609_4 totalBusyTime 0.336801
scalar Scenario.node[23].nic.mac1609_4 retriesExceeded:count 0
attr recordingmode count
attr source org_car2x_veins_modules_mac_sigRetriesExceeded
scalar Scenario.node[23].nic.mac1609_4 sentAcks:count 0
attr recordingmode count
attr source org_car2x_veins_modules_mac_sigSentAck
scalar Scenario.node[23].nic.mac1609_4 sentPackets:count 257
attr recordingmode count
attr source org_car2x_veins_modules_mac_sigSentPacket
scalar Scenario.node[23].nic.mac1609_4 collisions:count 0
attr recordingmode count
attr source org_car2x_veins_modules_mac_sigCollision
scalar Scenario.node[23].nic.mac1609_4 channelBusy:timeavg 0.013105097276264
attr recordingmode timeavg
attr source org_car2x_veins_modules_mac_sigChannelBusy
par Scenario.node[23].nic typename "\"org.car2x.veins.modules.nic.Nic80211p\""
[...]
attr unit dBm
par Scenario.node[46].nic.phy80211p timeRXToTX 0s
attr unit s
par Scenario.node[46].nic.phy80211p timeRXToSleep 0s
attr unit s
par Scenario.node[46].nic.phy80211p timeTXToRX 0s
attr unit s
par Scenario.node[46].nic.phy80211p timeTXToSleep 0s
attr unit s
par Scenario.node[46].nic.phy80211p timeSleepToRX 0s
attr unit s
par Scenario.node[46].nic.phy80211p timeSleepToTX 0s
attr unit s
par Scenario.node[46].nic.phy80211p initialRadioState 0
par Scenario.node[46].nic.phy80211p radioMinAtt 1
par Scenario.node[46].nic.phy80211p radioMaxAtt 0
par Scenario.node[46].nic.phy80211p nbRadioChannels 1
par Scenario.node[46].nic.phy80211p initialRadioChannel 0
par Scenario.node[46].nic.phy80211p ccaThreshold -65dBm
attr unit dBm
par Scenario.node[46].nic.phy80211p collectCollisionStatistics false
par Scenario.node[46].nic.phy80211p allowTxDuringRx false
scalar Scenario.node[46].nic.phy80211p busyTime 0.012208
par Scenario.node[46].nic.mac1609_4 typename "\"org.car2x.veins.modules.mac.ieee80211p.Mac1609_4\""
par Scenario.node[46].nic.mac1609_4 notAffectedByHostState false
par Scenario.node[46].nic.mac1609_4 headerLength 0bit
attr unit bit
par Scenario.node[46].nic.mac1609_4 address "\"auto\""
par Scenario.node[46].nic.mac1609_4 useServiceChannel false
par Scenario.node[46].nic.mac1609_4 serviceChannel 1
par Scenario.node[46].nic.mac1609_4 bitrate 6000000bps
attr unit bps
par Scenario.node[46].nic.mac1609_4 syncOffset 0.0003s
attr unit s
par Scenario.node[46].nic.mac1609_4 txPower 20mW
attr unit mW
par Scenario.node[46].nic.mac1609_4 queueSize 0
par Scenario.node[46].nic.mac1609_4 dot11RTSThreshold 12000bit
attr unit bit
par Scenario.node[46].nic.mac1609_4 dot11ShortRetryLimit 7
par Scenario.node[46].nic.mac1609_4 dot11LongRetryLimit 4
par Scenario.node[46].nic.mac1609_4 ackLength 112bit
attr unit bit
par Scenario.node[46].nic.mac1609_4 useAcks false
par Scenario.node[46].nic.mac1609_4 frameErrorRate 0
par Scenario.node[46].nic.mac1609_4 ackErrorRate 0
scalar Scenario.node[46].nic.mac1609_4 ReceivedUnicastPackets 0
scalar Scenario.node[46].nic.mac1609_4 ReceivedBroadcasts 698
scalar Scenario.node[46].nic.mac1609_4 SentPackets 65
scalar Scenario.node[46].nic.mac1609_4 SentAcknowledgements 0
scalar Scenario.node[46].nic.mac1609_4 RetriesExceeded 0
scalar Scenario.node[46].nic.mac1609_4 SNIRLostPackets 65
scalar Scenario.node[46].nic.mac1609_4 RXTXLostPackets 0
scalar Scenario.node[46].nic.mac1609_4 TotalLostPackets 65
scalar Scenario.node[46].nic.mac1609_4 DroppedPacketsInMac 0
scalar Scenario.node[46].nic.mac1609_4 TooLittleTime 0
scalar Scenario.node[46].nic.mac1609_4 TimesIntoBackoff 65
scalar Scenario.node[46].nic.mac1609_4 SlotsBackoff 107
scalar Scenario.node[46].nic.mac1609_4 NumInternalContention 0
scalar Scenario.node[46].nic.mac1609_4 totalBusyTime 0.086177
scalar Scenario.node[46].nic.mac1609_4 retriesExceeded:count 0
attr recordingmode count
attr source org_car2x_veins_modules_mac_sigRetriesExceeded
scalar Scenario.node[46].nic.mac1609_4 sentAcks:count 0
attr recordingmode count
attr source org_car2x_veins_modules_mac_sigSentAck
scalar Scenario.node[46].nic.mac1609_4 sentPackets:count 65
attr recordingmode count
attr source org_car2x_veins_modules_mac_sigSentPacket
scalar Scenario.node[46].nic.mac1609_4 collisions:count 0
attr recordingmode count
attr source org_car2x_veins_modules_mac_sigCollision
scalar Scenario.node[46].nic.mac1609_4 channelBusy:timeavg 0.013258
attr recordingmode timeavg
attr source org_car2x_veins_modules_mac_sigChannelBusy
par Scenario.node[46].nic typename "\"org.car2x.veins.modules.nic.Nic80211p\""
par Scenario.node[46].nic connectionManagerName "\"connectionManager\""
par Scenario.node[46].veinsmobility typename "\"org.car2x.veins.modules.mobility.traci.TraCIMobility\""
par Scenario.node[46].veinsmobility notAffectedByHostState true
par Scenario.node[46].veinsmobility x 0
par Scenario.node[46].veinsmobility y 0
par Scenario.node[46].veinsmobility z 1.895
par Scenario.node[46].veinsmobility xOrientation 1
par Scenario.node[46].veinsmobility yOrientation 0
par Scenario.node[46].veinsmobility zOrientation 0
par Scenario.node[46].veinsmobility hostPositionOffset 0m
attr unit m
par Scenario.node[46].veinsmobility setHostSpeed false
par Scenario.node[46].veinsmobility accidentCount 0
par Scenario.node[46].veinsmobility accidentStart 33.915s
attr unit s
par Scenario.node[46].veinsmobility accidentDuration "uniform(30s, 60s)"
attr unit s
par Scenario.node[46].veinsmobility accidentInterval "uniform(30s, 60s)"
attr unit s
scalar Scenario.node[46].veinsmobility startTime 93.5
scalar Scenario.node[46].veinsmobility totalTime 6.5
scalar Scenario.node[46].veinsmobility stopTime 100
scalar Scenario.node[46].veinsmobility minSpeed 0.25482408630312
scalar Scenario.node[46].veinsmobility maxSpeed 12.935460429203
scalar Scenario.node[46].veinsmobility totalDistance 42.877359638912
scalar Scenario.node[46].veinsmobility totalCO2Emission 29.969885912847
par Scenario.node[46] typename "\"org.car2x.veins.nodes.Car\""
par Scenario.node[46] applType "\"TraCIDemo11p\""
par Scenario.node[46] nicType "\"Nic80211p\""
par Scenario.node[46] veinsmobilityType "\"org.car2x.veins.modules.mobility.traci.TraCIMobility\""
par Scenario.node[47].appl typename "\"org.car2x.veins.modules.application.traci.TraCIDemo11p\""
par Scenario.node[47].appl headerLength 80bit
attr unit bit
par Scenario.node[47].appl sendBeacons true
par Scenario.node[47].appl beaconLengthBits 256bit
attr unit bit
par Scenario.node[47].appl beaconUserPriority 7
par Scenario.node[47].appl beaconInterval 0.1s
attr unit s
par Scenario.node[47].appl dataLengthBits 1024bit
attr unit bit
par Scenario.node[47].appl dataOnSch false
par Scenario.node[47].appl dataUserPriority 7
par Scenario.node[47].appl avoidBeaconSynchronization true
par Scenario.node[47].appl sendWSA false
par Scenario.node[47].appl wsaLengthBits 250bit
attr unit bit
par Scenario.node[47].appl wsaInterval 1s
attr unit s
scalar Scenario.node[47].appl generatedWSMs 0
scalar Scenario.node[47].appl receivedWSMs 0
scalar Scenario.node[47].appl generatedBSMs 39
scalar Scenario.node[47].appl receivedBSMs 442
scalar Scenario.node[47].appl generatedWSAs 0
scalar Scenario.node[47].appl receivedWSAs 0
par Scenario.node[47].nic.phy80211p typename "\"org.car2x.veins.modules.phy.PhyLayer80211p\""
par Scenario.node[47].nic.phy80211p recordStats false
par Scenario.node[47].nic.phy80211p usePropagationDelay true
par Scenario.node[47].nic.phy80211p noiseFloor -98dBm
attr unit dBm
par Scenario.node[47].nic.phy80211p useNoiseFloor true
par Scenario.node[47].nic.phy80211p antenna "<root>...</root> at content:1"
par Scenario.node[47].nic.phy80211p antennaOffsetX 0m
attr unit m
par Scenario.node[47].nic.phy80211p antennaOffsetY 0m
attr unit m
par Scenario.node[47].nic.phy80211p antennaOffsetZ 1.895m
attr unit m
par Scenario.node[47].nic.phy80211p antennaOffsetYaw 0rad
attr unit rad
par Scenario.node[47].nic.phy80211p analogueModels "<root>...</root> at /home/vagrant/spe-homework-project/Project/simulations//config_3.xml:2"
par Scenario.node[47].nic.phy80211p decider "<root>...</root> at /home/vagrant/spe-homework-project/Project/simulations//config_3.xml:2"
par Scenario.node[47].nic.phy80211p minPowerLevel -110dBm
attr unit dBm
par Scenario.node[47].nic.phy80211p timeRXToTX 0s
attr unit s
par Scenario.node[47].nic.phy80211p timeRXToSleep 0s
attr unit s
par Scenario.node[47].nic.phy80211p timeTXToRX 0s
attr unit s
par Scenario.node[47].nic.phy80211p timeTXToSleep 0s
attr unit s
par Scenario.node[47].nic.phy80211p timeSleepToRX 0s
attr unit s
par Scenario.node[47].nic.phy80211p timeSleepToTX 0s
attr unit s
par Scenario.node[47].nic.phy80211p initialRadioState 0
par Scenario.node[47].nic.phy80211p radioMinAtt 1
par Scenario.node[47].nic.phy80211p radioMaxAtt 0
par Scenario.node[47].nic.phy80211p nbRadioChannels 1
par Scenario.node[47].nic.phy80211p initialRadioChannel 0
par Scenario.node[47].nic.phy80211p ccaThreshold -65dBm
attr unit dBm
par Scenario.node[47].nic.phy80211p collectCollisionStatistics false
par Scenario.node[47].nic.phy80211p allowTxDuringRx false
scalar Scenario.node[47].nic.phy80211p busyTime 0.012053333333333
par Scenario.node[47].nic.mac1609_4 typename "\"org.car2x.veins.modules.mac.ieee80211p.Mac1609_4\""
par Scenario.node[47].nic.mac1609_4 notAffectedByHostState false
par Scenario.node[47].nic.mac1609_4 headerLength 0bit
attr unit bit
par Scenario.node[47].nic.mac1609_4 address "\"auto\""
par Scenario.node[47].nic.mac1609_4 useServiceChannel false
par Scenario.node[47].nic.mac1609_4 serviceChannel 1
par Scenario.node[47].nic.mac1609_4 bitrate 6000000bps
attr unit bps
par Scenario.node[47].nic.mac1609_4 syncOffset 0.0003s
attr unit s
par Scenario.node[47].nic.mac1609_4 txPower 20mW
attr unit mW
par Scenario.node[47].nic.mac1609_4 queueSize 0
par Scenario.node[47].nic.mac1609_4 dot11RTSThreshold 12000bit
attr unit bit
par Scenario.node[47].nic.mac1609_4 dot11ShortRetryLimit 7
par Scenario.node[47].nic.mac1609_4 dot11LongRetryLimit 4
par Scenario.node[47].nic.mac1609_4 ackLength 112bit
attr unit bit
par Scenario.node[47].nic.mac1609_4 useAcks false
par Scenario.node[47].nic.mac1609_4 frameErrorRate 0
par Scenario.node[47].nic.mac1609_4 ackErrorRate 0
scalar Scenario.node[47].nic.mac1609_4 ReceivedUnicastPackets 0
scalar Scenario.node[47].nic.mac1609_4 ReceivedBroadcasts 442
scalar Scenario.node[47].nic.mac1609_4 SentPackets 39
scalar Scenario.node[47].nic.mac1609_4 SentAcknowledgements 0
scalar Scenario.node[47].nic.mac1609_4 RetriesExceeded 0
scalar Scenario.node[47].nic.mac1609_4 SNIRLostPackets 10
scalar Scenario.node[47].nic.mac1609_4 RXTXLostPackets 0
scalar Scenario.node[47].nic.mac1609_4 TotalLostPackets 10
scalar Scenario.node[47].nic.mac1609_4 DroppedPacketsInMac 0
scalar Scenario.node[47].nic.mac1609_4 TooLittleTime 0
scalar Scenario.node[47].nic.mac1609_4 TimesIntoBackoff 78
scalar Scenario.node[47].nic.mac1609_4 SlotsBackoff 122
scalar Scenario.node[47].nic.mac1609_4 NumInternalContention 0
scalar Scenario.node[47].nic.mac1609_4 totalBusyTime 0.051103
scalar Scenario.node[47].nic.mac1609_4 retriesExceeded:count 0
attr recordingmode count
attr source org_car2x_veins_modules_mac_sigRetriesExceeded
scalar Scenario.node[47].nic.mac1609_4 sentAcks:count 0
attr recordingmode count
attr source org_car2x_veins_modules_mac_sigSentAck
scalar Scenario.node[47].nic.mac1609_4 sentPackets:count 39
attr recordingmode count
attr source org_car2x_veins_modules_mac_sigSentPacket
scalar Scenario.node[47].nic.mac1609_4 collisions:count 0
attr recordingmode count
attr source org_car2x_veins_modules_mac_sigCollision
scalar Scenario.node[47].nic.mac1609_4 channelBusy:timeavg 0.013103333333333
attr recordingmode timeavg
attr source org_car2x_veins_modules_mac_sigChannelBusy
par Scenario.node[47].nic typename "\"org.car2x.veins.modules.nic.Nic80211p\""
par Scenario.node[47].nic connectionManagerName "\"connectionManager\""
par Scenario.node[47].veinsmobility typename "\"org.car2x.veins.modules.mobility.traci.TraCIMobility\""
par Scenario.node[47].veinsmobility notAffectedByHostState true
par Scenario.node[47].veinsmobility x 0
par Scenario.node[47].veinsmobility y 0
par Scenario.node[47].veinsmobility z 1.895
par Scenario.node[47].veinsmobility xOrientation 1
par Scenario.node[47].veinsmobility yOrientation 0
par Scenario.node[47].veinsmobility zOrientation 0
par Scenario.node[47].veinsmobility hostPositionOffset 0m
attr unit m
par Scenario.node[47].veinsmobility setHostSpeed false
par Scenario.node[47].veinsmobility accidentCount 0
par Scenario.node[47].veinsmobility accidentStart 42.0295s
attr unit s
par Scenario.node[47].veinsmobility accidentDuration "uniform(30s, 60s)"
attr unit s
par Scenario.node[47].veinsmobility accidentInterval "uniform(30s, 60s)"
attr unit s
scalar Scenario.node[47].veinsmobility startTime 96.1
scalar Scenario.node[47].veinsmobility totalTime 3.9
scalar Scenario.node[47].veinsmobility stopTime 100
scalar Scenario.node[47].veinsmobility minSpeed 0.25885228516208
scalar Scenario.node[47].veinsmobility maxSpeed 8.1901374494125
scalar Scenario.node[47].veinsmobility totalDistance 16.809404087671
scalar Scenario.node[47].veinsmobility totalCO2Emission 13.360838913311
par Scenario.node[47] typename "\"org.car2x.veins.nodes.Car\""
par Scenario.node[47] applType "\"TraCIDemo11p\""
par Scenario.node[47] nicType "\"Nic80211p\""
par Scenario.node[47] veinsmobilityType "\"org.car2x.veins.modules.mobility.traci.TraCIMobility\""
par Scenario.node[48].appl typename "\"org.car2x.veins.modules.application.traci.TraCIDemo11p\""
par Scenario.node[48].appl headerLength 80bit
attr unit bit
par Scenario.node[48].appl sendBeacons true
par Scenario.node[48].appl beaconLengthBits 256bit
attr unit bit
par Scenario.node[48].appl beaconUserPriority 7
par Scenario.node[48].appl beaconInterval 0.1s
attr unit s
par Scenario.node[48].appl dataLengthBits 1024bit
attr unit bit
par Scenario.node[48].appl dataOnSch false
par Scenario.node[48].appl dataUserPriority 7
par Scenario.node[48].appl avoidBeaconSynchronization true
par Scenario.node[48].appl sendWSA false
par Scenario.node[48].appl wsaLengthBits 250bit
attr unit bit
par Scenario.node[48].appl wsaInterval 1s
attr unit s
scalar Scenario.node[48].appl generatedWSMs 0
scalar Scenario.node[48].appl receivedWSMs 0
scalar Scenario.node[48].appl generatedBSMs 6
scalar Scenario.node[48].appl receivedBSMs 55
scalar Scenario.node[48].appl generatedWSAs 0
scalar Scenario.node[48].appl receivedWSAs 0
par Scenario.node[48].nic.phy80211p typename "\"org.car2x.veins.modules.phy.PhyLayer80211p\""
par Scenario.node[48].nic.phy80211p recordStats false
par Scenario.node[48].nic.phy80211p usePropagationDelay true
par Scenario.node[48].nic.phy80211p noiseFloor -98dBm
attr unit dBm
par Scenario.node[48].nic.phy80211p useNoiseFloor true
par Scenario.node[48].nic.phy80211p antenna "<root>...</root> at content:1"
par Scenario.node[48].nic.phy80211p antennaOffsetX 0m
attr unit m
par Scenario.node[48].nic.phy80211p antennaOffsetY 0m
attr unit m
par Scenario.node[48].nic.phy80211p antennaOffsetZ 1.895m
attr unit m
par Scenario.node[48].nic.phy80211p antennaOffsetYaw 0rad
attr unit rad
par Scenario.node[48].nic.phy80211p analogueModels "<root>...</root> at /home/vagrant/spe-homework-project/Project/simulations//config_3.xml:2"
par Scenario.node[48].nic.phy80211p decider "<root>...</root> at /home/vagrant/spe-homework-project/Project/simulations//config_3.xml:2"
par Scenario.node[48].nic.phy80211p minPowerLevel -110dBm
attr unit dBm
par Scenario.node[48].nic.phy80211p timeRXToTX 0s
attr unit s
par Scenario.node[48].nic.phy80211p timeRXToSleep 0s
attr unit s
par Scenario.node[48].nic.phy80211p timeTXToRX 0s
attr unit s
par Scenario.node[48].nic.phy80211p timeTXToSleep 0s
attr unit s
par Scenario.node[48].nic.phy80211p timeSleepToRX 0s
attr unit s
par Scenario.node[48].nic.phy80211p timeSleepToTX 0s
attr unit s
par Scenario.node[48].nic.phy80211p initialRadioState 0
par Scenario.node[48].nic.phy80211p radioMinAtt 1
par Scenario.node[48].nic.phy80211p radioMaxAtt 0
par Scenario.node[48].nic.phy80211p nbRadioChannels 1
par Scenario.node[48].nic.phy80211p initialRadioChannel 0
par Scenario.node[48].nic.phy80211p ccaThreshold -65dBm
attr unit dBm
par Scenario.node[48].nic.phy80211p collectCollisionStatistics false
par Scenario.node[48].nic.phy80211p allowTxDuringRx false
scalar Scenario.node[48].nic.phy80211p busyTime 0.0097066666666667
par Scenario.node[48].nic.mac1609_4 typename "\"org.car2x.veins.modules.mac.ieee80211p.Mac1609_4\""
par Scenario.node[48].nic.mac1609_4 notAffectedByHostState false
par Scenario.node[48].nic.mac1609_4 headerLength 0bit
attr unit bit
par Scenario.node[48].nic.mac1609_4 address "\"auto\""
par Scenario.node[48].nic.mac1609_4 useServiceChannel false
par Scenario.node[48].nic.mac1609_4 serviceChannel 1
par Scenario.node[48].nic.mac1609_4 bitrate 6000000bps
attr unit bps
par Scenario.node[48].nic.mac1609_4 syncOffset 0.0003s
attr unit s
par Scenario.node[48].nic.mac1609_4 txPower 20mW
attr unit mW
par Scenario.node[48].nic.mac1609_4 queueSize 0
par Scenario.node[48].nic.mac1609_4 dot11RTSThreshold 12000bit
attr unit bit
par Scenario.node[48].nic.mac1609_4 dot11ShortRetryLimit 7
par Scenario.node[48].nic.mac1609_4 dot11LongRetryLimit 4
par Scenario.node[48].nic.mac1609_4 ackLength 112bit
attr unit bit
par Scenario.node[48].nic.mac1609_4 useAcks false
par Scenario.node[48].nic.mac1609_4 frameErrorRate 0
par Scenario.node[48].nic.mac1609_4 ackErrorRate 0
scalar Scenario.node[48].nic.mac1609_4 ReceivedUnicastPackets 0
scalar Scenario.node[48].nic.mac1609_4 ReceivedBroadcasts 55
scalar Scenario.node[48].nic.mac1609_4 SentPackets 6
scalar Scenario.node[48].nic.mac1609_4 SentAcknowledgements 0
scalar Scenario.node[48].nic.mac1609_4 RetriesExceeded 0
scalar Scenario.node[48].nic.mac1609_4 SNIRLostPackets 1
scalar Scenario.node[48].nic.mac1609_4 RXTXLostPackets 0
scalar Scenario.node[48].nic.mac1609_4 TotalLostPackets 1
scalar Scenario.node[48].nic.mac1609_4 DroppedPacketsInMac 0
scalar Scenario.node[48].nic.mac1609_4 TooLittleTime 0
scalar Scenario.node[48].nic.mac1609_4 TimesIntoBackoff 6
scalar Scenario.node[48].nic.mac1609_4 SlotsBackoff 5
scalar Scenario.node[48].nic.mac1609_4 NumInternalContention 0
scalar Scenario.node[48].nic.mac1609_4 totalBusyTime 0.006454
scalar Scenario.node[48].nic.mac1609_4 retriesExceeded:count 0
attr recordingmode count
attr source org_car2x_veins_modules_mac_sigRetriesExceeded
scalar Scenario.node[48].nic.mac1609_4 sentAcks:count 0
attr recordingmode count
attr source org_car2x_veins_modules_mac_sigSentAck
scalar Scenario.node[48].nic.mac1609_4 sentPackets:count 6
attr recordingmode count
attr source org_car2x_veins_modules_mac_sigSentPacket
scalar Scenario.node[48].nic.mac1609_4 collisions:count 0
attr recordingmode count
attr source org_car2x_veins_modules_mac_sigCollision
scalar Scenario.node[48].nic.mac1609_4 channelBusy:timeavg 0.010756666666667
attr recordingmode timeavg
attr source org_car2x_veins_modules_mac_sigChannelBusy
par Scenario.node[48].nic typename "\"org.car2x.veins.modules.nic.Nic80211p\""
par Scenario.node[48].nic connectionManagerName "\"connectionManager\""
par Scenario.node[48].veinsmobility typename "\"org.car2x.veins.modules.mobility.traci.TraCIMobility\""
par Scenario.node[48].veinsmobility notAffectedByHostState true
par Scenario.node[48].veinsmobility x 0
par Scenario.node[48].veinsmobility y 0
par Scenario.node[48].veinsmobility z 1.895
par Scenario.node[48].veinsmobility xOrientation 1
par Scenario.node[48].veinsmobility yOrientation 0
par Scenario.node[48].veinsmobility zOrientation 0
par Scenario.node[48].veinsmobility hostPositionOffset 0m
attr unit m
par Scenario.node[48].veinsmobility setHostSpeed false
par Scenario.node[48].veinsmobility accidentCount 0
par Scenario.node[48].veinsmobility accidentStart 31.8824s
attr unit s
par Scenario.node[48].veinsmobility accidentDuration "uniform(30s, 60s)"
attr unit s
par Scenario.node[48].veinsmobility accidentInterval "uniform(30s, 60s)"
attr unit s
scalar Scenario.node[48].veinsmobility startTime 99.4
scalar Scenario.node[48].veinsmobility totalTime 0.6
scalar Scenario.node[48].veinsmobility stopTime 100
scalar Scenario.node[48].veinsmobility minSpeed 0.25626240325323
scalar Scenario.node[48].veinsmobility maxSpeed 1.4497266896885
scalar Scenario.node[48].veinsmobility totalDistance 0.52101707040785
scalar Scenario.node[48].veinsmobility totalCO2Emission 0.85876376611212
par Scenario.node[48] typename "\"org.car2x.veins.nodes.Car\""
par Scenario.node[48] applType "\"TraCIDemo11p\""
par Scenario.node[48] nicType "\"Nic80211p\""
par Scenario.node[48] veinsmobilityType "\"org.car2x.veins.modules.mobility.traci.TraCIMobility\""
par Scenario typename "\"org.car2x.veins.nodes.Scenario\""
par Scenario playgroundSizeX 600m
attr unit m
par Scenario playgroundSizeY 600m
attr unit m
par Scenario playgroundSizeZ 50m
attr unit m

