version 3
run Scenario3-1-20260625-11:51:52-4270
attr configname Scenario3
attr datetime 20260625-11:51:52
attr datetimef 20260625-115152
attr experiment Scenario3
attr inifile omnetpp.ini
attr iterationvars ""
attr iterationvarsd ""
attr iterationvarsf ""
attr measurement ""
attr network org.car2x.veins.nodes.Scenario
attr processid 4270
attr repetition 1
attr replication #1
attr resultdir results
attr runnumber 1
attr seedset 1
config image-path ../../../veins/images
config description "Obstacle Shadowing (Buildings block signals)"
config *.annotations.draw true
config *.obstacles.obstacles "xmldoc(\"config_3.xml\", \"//AnalogueModel[@type='SimpleObstacleShadowing']/obstacles\")"
config *.**.nic.phy80211p.decider "xmldoc(\"config_3.xml\")"
config *.**.nic.phy80211p.analogueModels "xmldoc(\"config_3.xml\")"
config repeat 10
config seed-set 1
config network org.car2x.veins.nodes.Scenario
config sim-time-limit 100s
config *.playgroundSizeX 600m
config *.playgroundSizeY 600m
config *.playgroundSizeZ 50m
config *.manager.updateInterval 0.1s
config *.manager.host "\"localhost\""
config *.manager.port 9999
config *.manager.autoShutdown true
config *.manager.launchConfig "xmldoc(\"simulation.launchd.xml\")"
config *.node[*].veinsmobility.x 0
config *.node[*].veinsmobility.y 0
config *.node[*].veinsmobility.z 1.895
config *.node[*].applType "\"TraCIDemo11p\""
config *.node[*].appl.headerLength "80 bit"
config *.node[*].appl.sendBeacons true
config *.node[*].appl.dataOnSch false
config *.node[*].appl.beaconInterval 0.1s
config *.connectionManager.sendDirect true
config *.connectionManager.maxInterfDist 500m
config *.connectionManager.drawMaxIntfDist false
config *.**.nic.mac1609_4.useServiceChannel false
config *.**.nic.mac1609_4.txPower 20mW
config *.**.nic.mac1609_4.bitrate 6Mbps
config *.**.nic.phy80211p.minPowerLevel -110dBm
config *.**.nic.phy80211p.useNoiseFloor true
config *.**.nic.phy80211p.noiseFloor -98dBm
config *.**.nic.phy80211p.usePropagationDelay true
config **.vector-recording true
config **.scalar-recording true
config *.**.nic.phy80211p.*.vector-recording true
config *.**.nic.mac1609_4.*.vector-recording true
config **.rcvdPower:vector.vector-recording true
config **.snir:vector.vector-recording true

par Scenario.node[13].appl typename "\"org.car2x.veins.modules.application.traci.TraCIDemo11p\""
par Scenario.node[13].appl headerLength 80bit
attr unit bit
par Scenario.node[13].appl sendBeacons true
par Scenario.node[13].appl beaconLengthBits 256bit
attr unit bit
par Scenario.node[13].appl beaconUserPriority 7
par Scenario.node[13].appl beaconInterval 0.1s
attr unit s
par Scenario.node[13].appl dataLengthBits 1024bit
attr unit bit
par Scenario.node[13].appl dataOnSch false
par Scenario.node[13].appl dataUserPriority 7
par Scenario.node[13].appl avoidBeaconSynchronization true
par Scenario.node[13].appl sendWSA false
par Scenario.node[13].appl wsaLengthBits 250bit
attr unit bit
par Scenario.node[13].appl wsaInterval 1s
attr unit s
scalar Scenario.node[13].appl generatedWSMs 0
scalar Scenario.node[13].appl receivedWSMs 0
scalar Scenario.node[13].appl generatedBSMs 152
scalar Scenario.node[13].appl receivedBSMs 981
scalar Scenario.node[13].appl generatedWSAs 0
scalar Scenario.node[13].appl receivedWSAs 0
par Scenario.node[13].nic.phy80211p typename "\"org.car2x.veins.modules.phy.PhyLayer80211p\""
par Scenario.node[13].nic.phy80211p recordStats false
par Scenario.node[13].nic.phy80211p usePropagationDelay true
par Scenario.node[13].nic.phy80211p noiseFloor -98dBm
attr unit dBm
par Scenario.node[13].nic.phy80211p useNoiseFloor true
par Scenario.node[13].nic.phy80211p antenna "<root>...</root> at content:1"
par Scenario.node[13].nic.phy80211p antennaOffsetX 0m
attr unit m
par Scenario.node[13].nic.phy80211p antennaOffsetY 0m
attr unit m
par Scenario.node[13].nic.phy80211p antennaOffsetZ 1.895m
attr unit m
par Scenario.node[13].nic.phy80211p antennaOffsetYaw 0rad
attr unit rad
par Scenario.node[13].nic.phy80211p analogueModels "<root>...</root> at /home/vagrant/spe-homework-project/Project/simulations//config_3.xml:2"
par Scenario.node[13].nic.phy80211p decider "<root>...</root> at /home/vagrant/spe-homework-project/Project/simulations//config_3.xml:2"
par Scenario.node[13].nic.phy80211p minPowerLevel -110dBm
attr unit dBm
par Scenario.node[13].nic.phy80211p timeRXToTX 0s
attr unit s
par Scenario.node[13].nic.phy80211p timeRXToSleep 0s
attr unit s
par Scenario.node[13].nic.phy80211p timeTXToRX 0s
attr unit s
par Scenario.node[13].nic.phy80211p timeTXToSleep 0s
attr unit s
par Scenario.node[13].nic.phy80211p timeSleepToRX 0s
attr unit s
par Scenario.node[13].nic.phy80211p timeSleepToTX 0s
attr unit s
par Scenario.node[13].nic.phy80211p initialRadioState 0
par Scenario.node[13].nic.phy80211p radioMinAtt 1
par Scenario.node[13].nic.phy80211p radioMaxAtt 0
par Scenario.node[13].nic.phy80211p nbRadioChannels 1
par Scenario.node[13].nic.phy80211p initialRadioChannel 0
par Scenario.node[13].nic.phy80211p ccaThreshold -65dBm
attr unit dBm
par Scenario.node[13].nic.phy80211p collectCollisionStatistics false
par Scenario.node[13].nic.phy80211p allowTxDuringRx false
scalar Scenario.node[13].nic.phy80211p busyTime 0.007615263157895
par Scenario.node[13].nic.mac1609_4 typename "\"org.car2x.veins.modules.mac.ieee80211p.Mac1609_4\""
par Scenario.node[13].nic.mac1609_4 notAffectedByHostState false
par Scenario.node[13].nic.mac1609_4 headerLength 0bit
attr unit bit
par Scenario.node[13].nic.mac1609_4 address "\"auto\""
par Scenario.node[13].nic.mac1609_4 useServiceChannel false
par Scenario.node[13].nic.mac1609_4 serviceChannel 1
par Scenario.node[13].nic.mac1609_4 bitrate 6000000bps
attr unit bps
par Scenario.node[13].nic.mac1609_4 syncOffset 0.0003s
attr unit s
par Scenario.node[13].nic.mac1609_4 txPower 20mW
attr unit mW
par Scenario.node[13].nic.mac1609_4 queueSize 0
par Scenario.node[13].nic.mac1609_4 dot11RTSThreshold 12000bit
attr unit bit
par Scenario.node[13].nic.mac1609_4 dot11ShortRetryLimit 7
par Scenario.node[13].nic.mac1609_4 dot11LongRetryLimit 4
par Scenario.node[13].nic.mac1609_4 ackLength 112bit
attr unit bit
par Scenario.node[13].nic.mac1609_4 useAcks false
par Scenario.node[13].nic.mac1609_4 frameErrorRate 0
par Scenario.node[13].nic.mac1609_4 ackErrorRate 0
scalar Scenario.node[13].nic.mac1609_4 ReceivedUnicastPackets 0
scalar Scenario.node[13].nic.mac1609_4 ReceivedBroadcasts 981
scalar Scenario.node[13].nic.mac1609_4 SentPackets 152
scalar Scenario.node[13].nic.mac1609_4 SentAcknowledgements 0
scalar Scenario.node[13].nic.mac1609_4 RetriesExceeded 0
scalar Scenario.node[13].nic.mac1609_4 SNIRLostPackets 132
scalar Scenario.node[13].nic.mac1609_4 RXTXLostPackets 0
scalar Scenario.node[13].nic.mac1609_4 TotalLostPackets 132
scalar Scenario.node[13].nic.mac1609_4 DroppedPacketsInMac 0
scalar Scenario.node[13].nic.mac1609_4 TooLittleTime 0
scalar Scenario.node[13].nic.mac1609_4 TimesIntoBackoff 152
scalar Scenario.node[13].nic.mac1609_4 SlotsBackoff 233
scalar Scenario.node[13].nic.mac1609_4 NumInternalContention 0
scalar Scenario.node[13].nic.mac1609_4 totalBusyTime 0.12828
scalar Scenario.node[13].nic.mac1609_4 retriesExceeded:count 0
attr recordingmode count
attr source org_car2x_veins_modules_mac_sigRetriesExceeded
scalar Scenario.node[13].nic.mac1609_4 sentAcks:count 0
attr recordingmode count
attr source org_car2x_veins_modules_mac_sigSentAck
scalar Scenario.node[13].nic.mac1609_4 sentPackets:count 152
attr recordingmode count
attr source org_car2x_veins_modules_mac_sigSentPacket
scalar Scenario.node[13].nic.mac1609_4 collisions:count 0
attr recordingmode count
attr source org_car2x_veins_modules_mac_sigCollision
scalar Scenario.node[13].nic.mac1609_4 channelBusy:timeavg 0.0084394736842107
attr recordingmode timeavg
attr source org_car2x_veins_modules_mac_sigChannelBusy
par Scenario.node[13].nic typename "\"org.car2x.veins.modules.nic.Nic80211p\""
par Scenario.node[13].nic connectionManagerName "\"connectionManager\""
par Scenario.node[13].veinsmobility typename "\"org.car2x.veins.modules.mobility.traci.TraCIMobility\""
par Scenario.node[13].veinsmobility notAffectedByHostState true
par Scenario.node[13].veinsmobility x 0
par Scenario.node[13].veinsmobility y 0
par Scenario.node[13].veinsmobility z 1.895
par Scenario.node[13].veinsmobility xOrientation 1
par Scenario.node[13].veinsmobility yOrientation 0
par Scenario.node[13].veinsmobility zOrientation 0
par Scenario.node[13].veinsmobility hostPositionOffset 0m
attr unit m
par Scenario.node[13].veinsmobility setHostSpeed false
par Scenario.node[13].veinsmobility accidentCount 0
par Scenario.node[13].veinsmobility accidentStart 44.8605s
attr unit s
par Scenario.node[13].veinsmobility accidentDuration "uniform(30s, 60s)"
attr unit s
par Scenario.node[13].veinsmobility accidentInterval "uniform(30s, 60s)"
attr unit s
scalar Scenario.node[13].veinsmobility startTime 13.1
scalar Scenario.node[13].veinsmobility totalTime 15.1
scalar Scenario.node[13].veinsmobility stopTime 28.3
scalar Scenario.node[13].veinsmobility minSpeed 0.2489653699901
scalar Scenario.node[13].veinsmobility maxSpeed 10.690919181606
scalar Scenario.node[13].veinsmobility totalDistance 134.01610082654
scalar Scenario.node[13].veinsmobility totalCO2Emission 40.359728967443
par Scenario.node[13] typename "\"org.car2x.veins.nodes.Car\""
par Scenario.node[13] applType "\"TraCIDemo11p\""
par Scenario.node[13] nicType "\"Nic80211p\""
par Scenario.node[13] veinsmobilityType "\"org.car2x.veins.modules.mobility.traci.TraCIMobility\""
par Scenario.node[6].appl typename "\"org.car2x.veins.modules.application.traci.TraCIDemo11p\""
par Scenario.node[6].appl headerLength 80bit
attr unit bit
par Scenario.node[6].appl sendBeacons true
par Scenario.node[6].appl beaconLengthBits 256bit
attr unit bit
par Scenario.node[6].appl beaconUserPriority 7
par Scenario.node[6].appl beaconInterval 0.1s
attr unit s
par Scenario.node[6].appl dataLengthBits 1024bit
attr unit bit
par Scenario.node[6].appl dataOnSch false
par Scenario.node[6].appl dataUserPriority 7
par Scenario.node[6].appl avoidBeaconSynchronization true
par Scenario.node[6].appl sendWSA false
par Scenario.node[6].appl wsaLengthBits 250bit
attr unit bit
par Scenario.node[6].appl wsaInterval 1s
attr unit s
scalar Scenario.node[6].appl generatedWSMs 0
scalar Scenario.node[6].appl receivedWSMs 0
scalar Scenario.node[6].appl generatedBSMs 256
scalar Scenario.node[6].appl receivedBSMs 1859
scalar Scenario.node[6].appl generatedWSAs 0
scalar Scenario.node[6].appl receivedWSAs 0
par Scenario.node[6].nic.phy80211p typename "\"org.car2x.veins.modules.phy.PhyLayer80211p\""
par Scenario.node[6].nic.phy80211p recordStats false
par Scenario.node[6].nic.phy80211p usePropagationDelay true
par Scenario.node[6].nic.phy80211p noiseFloor -98dBm
attr unit dBm
par Scenario.node[6].nic.phy80211p useNoiseFloor true
par Scenario.node[6].nic.phy80211p antenna "<root>...</root> at content:1"
par Scenario.node[6].nic.phy80211p antennaOffsetX 0m
attr unit m
par Scenario.node[6].nic.phy80211p antennaOffsetY 0m
attr unit m
par Scenario.node[6].nic.phy80211p antennaOffsetZ 1.895m
attr unit m
par Scenario.node[6].nic.phy80211p antennaOffsetYaw 0rad
attr unit rad
par Scenario.node[6].nic.phy80211p analogueModels "<root>...</root> at /home/vagrant/spe-homework-project/Project/simulations//config_3.xml:2"
par Scenario.node[6].nic.phy80211p decider "<root>...</root> at /home/vagrant/spe-homework-project/Project/simulations//config_3.xml:2"
par Scenario.node[6].nic.phy80211p minPowerLevel -110dBm
attr unit dBm
par Scenario.node[6].nic.phy80211p timeRXToTX 0s
attr unit s
par Scenario.node[6].nic.phy80211p timeRXToSleep 0s
attr unit s
par Scenario.node[6].nic.phy80211p timeTXToRX 0s
attr unit s
par Scenario.node[6].nic.phy80211p timeTXToSleep 0s
attr unit s
par Scenario.node[6].nic.phy80211p timeSleepToRX 0s
attr unit s
par Scenario.node[6].nic.phy80211p timeSleepToTX 0s
attr unit s
par Scenario.node[6].nic.phy80211p initialRadioState 0
par Scenario.node[6].nic.phy80211p radioMinAtt 1
par Scenario.node[6].nic.phy80211p radioMaxAtt 0
par Scenario.node[6].nic.phy80211p nbRadioChannels 1
par Scenario.node[6].nic.phy80211p initialRadioChannel 0
par Scenario.node[6].nic.phy80211p ccaThreshold -65dBm
attr unit dBm
par Scenario.node[6].nic.phy80211p collectCollisionStatistics false
par Scenario.node[6].nic.phy80211p allowTxDuringRx false
scalar Scenario.node[6].nic.phy80211p busyTime 0.0086287499999999
par Scenario.node[6].nic.mac1609_4 typename "\"org.car2x.veins.modules.mac.ieee80211p.Mac1609_4\""
par Scenario.node[6].nic.mac1609_4 notAffectedByHostState false
par Scenario.node[6].nic.mac1609_4 headerLength 0bit
attr unit bit
par Scenario.node[6].nic.mac1609_4 address "\"auto\""
par Scenario.node[6].nic.mac1609_4 useServiceChannel false
par Scenario.node[6].nic.mac1609_4 serviceChannel 1
par Scenario.node[6].nic.mac1609_4 bitrate 6000000bps
attr unit bps
par Scenario.node[6].nic.mac1609_4 syncOffset 0.0003s
attr unit s
par Scenario.node[6].nic.mac1609_4 txPower 20mW
attr unit mW
par Scenario.node[6].nic.mac1609_4 queueSize 0
par Scenario.node[6].nic.mac1609_4 dot11RTSThreshold 12000bit
attr unit bit
par Scenario.node[6].nic.mac1609_4 dot11ShortRetryLimit 7
par Scenario.node[6].nic.mac1609_4 dot11LongRetryLimit 4
par Scenario.node[6].nic.mac1609_4 ackLength 112bit
attr unit bit
par Scenario.node[6].nic.mac1609_4 useAcks false
par Scenario.node[6].nic.mac1609_4 frameErrorRate 0
par Scenario.node[6].nic.mac1609_4 ackErrorRate 0
scalar Scenario.node[6].nic.mac1609_4 ReceivedUnicastPackets 0
scalar Scenario.node[6].nic.mac1609_4 ReceivedBroadcasts 1859
scalar Scenario.node[6].nic.mac1609_4 SentPackets 256
scalar Scenario.node[6].nic.mac1609_4 SentAcknowledgements 0
scalar Scenario.node[6].nic.mac1609_4 RetriesExceeded 0
scalar Scenario.node[6].nic.mac1609_4 SNIRLostPackets 265
scalar Scenario.node[6].nic.mac1609_4 RXTXLostPackets 0
scalar Scenario.node[6].nic.mac1609_4 TotalLostPackets 265
scalar Scenario.node[6].nic.mac1609_4 DroppedPacketsInMac 0
scalar Scenario.node[6].nic.mac1609_4 TooLittleTime 0
scalar Scenario.node[6].nic.mac1609_4 TimesIntoBackoff 256
scalar Scenario.node[6].nic.mac1609_4 SlotsBackoff 382
scalar Scenario.node[6].nic.mac1609_4 NumInternalContention 0
scalar Scenario.node[6].nic.mac1609_4 totalBusyTime 0.241195088907
scalar Scenario.node[6].nic.mac1609_4 retriesExceeded:count 0
attr recordingmode count
attr source org_car2x_veins_modules_mac_sigRetriesExceeded
scalar Scenario.node[6].nic.mac1609_4 sentAcks:count 0
attr recordingmode count
attr source org_car2x_veins_modules_mac_sigSentAck
scalar Scenario.node[6].nic.mac1609_4 sentPackets:count 256
attr recordingmode count
attr source org_car2x_veins_modules_mac_sigSentPacket
scalar Scenario.node[6].nic.mac1609_4 collisions:count 0
attr recordingmode count
attr source org_car2x_veins_modules_mac_sigCollision
scalar Scenario.node[6].nic.mac1609_4 channelBusy:timeavg 0.0094216831604295
attr recordingmode timeavg
attr source org_car2x_veins_modules_mac_sigChannelBusy
par Scenario.node[6].nic typename "\"org.car2x.veins.modules.nic.Nic80211p\""
par Scenario.node[6].nic connectionManagerName "\"connectionManager\""
par Scenario.node[6].veinsmobility typename "\"org.car2x.veins.modules.mobility.traci.TraCIMobility\""
par Scenario.node[6].veinsmobility notAffectedByHostState true
par Scenario.node[6].veinsmobility x 0
par Scenario.node[6].veinsmobility y 0
par Scenario.node[6].veinsmobility z 1.895
par Scenario.node[6].veinsmobility xOrientation 1
par Scenario.node[6].veinsmobility yOrientation 0
par Scenario.node[6].veinsmobility zOrientation 0
par Scenario.node[6].veinsmobility hostPositionOffset 0m
attr unit m
par Scenario.node[6].veinsmobility setHostSpeed false
par Scenario.node[6].veinsmobility accidentCount 0
par Scenario.node[6].veinsmobility accidentStart 30.9285s
attr unit s
par Scenario.node[6].veinsmobility accidentDuration "uniform(30s, 60s)"
attr unit s
par Scenario.node[6].veinsmobility accidentInterval "uniform(30s, 60s)"
attr unit s
scalar Scenario.node[6].veinsmobility startTime 6.1
scalar Scenario.node[6].veinsmobility totalTime 25.5
scalar Scenario.node[6].veinsmobility stopTime 31.7
scalar Scenario.node[6].veinsmobility minSpeed 0.24988986866688
scalar Scenario.node[6].veinsmobility maxSpeed 14.076124435054
scalar Scenario.node[6].veinsmobility totalDistance 278.19597619232
scalar Scenario.node[6].veinsmobility totalCO2Emission 90.71625715144
par Scenario.node[6] typename "\"org.car2x.veins.nodes.Car\""
par Scenario.node[6] applType "\"TraCIDemo11p\""
par Scenario.node[6] nicType "\"Nic80211p\""
par Scenario.node[6] veinsmobilityType "\"org.car2x.veins.modules.mobility.traci.TraCIMobility\""
par Scenario.node[7].appl typename "\"org.car2x.veins.modules.application.traci.TraCIDemo11p\""
par Scenario.node[7].appl headerLength 80bit
attr unit bit
par Scenario.node[7].appl sendBeacons true
par Scenario.node[7].appl beaconLengthBits 256bit
attr unit bit
par Scenario.node[7].appl beaconUserPriority 7
par Scenario.node[7].appl beaconInterval 0.1s
attr unit s
par Scenario.node[7].appl dataLengthBits 1024bit
attr unit bit
par Scenario.node[7].appl dataOnSch false
par Scenario.node[7].appl dataUserPriority 7
par Scenario.node[7].appl avoidBeaconSynchronization true
par Scenario.node[7].appl sendWSA false
par Scenario.node[7].appl wsaLengthBits 250bit
attr unit bit
par Scenario.node[7].appl wsaInterval 1s
attr unit s
scalar Scenario.node[7].appl generatedWSMs 0
scalar Scenario.node[7].appl receivedWSMs 0
scalar Scenario.node[7].appl generatedBSMs 269
scalar Scenario.node[7].appl receivedBSMs 2286
scalar Scenario.node[7].appl generatedWSAs 0
scalar Scenario.node[7].appl receivedWSAs 0
par Scenario.node[7].nic.phy80211p typename "\"org.car2x.veins.modules.phy.PhyLayer80211p\""
par Scenario.node[7].nic.phy80211p recordStats false
par Scenario.node[7].nic.phy80211p usePropagationDelay true
par Scenario.node[7].nic.phy80211p noiseFloor -98dBm
attr unit dBm
par Scenario.node[7].nic.phy80211p useNoiseFloor true
par Scenario.node[7].nic.phy80211p antenna "<root>...</root> at content:1"
par Scenario.node[7].nic.phy80211p antennaOffsetX 0m
attr unit m
par Scenario.node[7].nic.phy80211p antennaOffsetY 0m
attr unit m
par Scenario.node[7].nic.phy80211p antennaOffsetZ 1.895m
attr unit m
par Scenario.node[7].nic.phy80211p antennaOffsetYaw 0rad
attr unit rad
par Scenario.node[7].nic.phy80211p analogueModels "<root>...</root> at /home/vagrant/spe-homework-project/Project/simulations//config_3.xml:2"
par Scenario.node[7].nic.phy80211p decider "<root>...</root> at /home/vagrant/spe-homework-project/Project/simulations//config_3.xml:2"
par Scenario.node[7].nic.phy80211p minPowerLevel -110dBm
attr unit dBm
par Scenario.node[7].nic.phy80211p timeRXToTX 0s
attr unit s
par Scenario.node[7].nic.phy80211p timeRXToSleep 0s
attr unit s
par Scenario.node[7].nic.phy80211p timeTXToRX 0s
attr unit s
par Scenario.node[7].nic.phy80211p timeTXToSleep 0s
attr unit s
par Scenario.node[7].nic.phy80211p timeSleepToRX 0s
attr unit s
par Scenario.node[7].nic.phy80211p timeSleepToTX 0s
attr unit s
par Scenario.node[7].nic.phy80211p initialRadioState 0
par Scenario.node[7].nic.phy80211p radioMinAtt 1
par Scenario.node[7].nic.phy80211p radioMaxAtt 0
par Scenario.node[7].nic.phy80211p nbRadioChannels 1
par Scenario.node[7].nic.phy80211p initialRadioChannel 0
par Scenario.node[7].nic.phy80211p ccaThreshold -65dBm
attr unit dBm
par Scenario.node[7].nic.phy80211p collectCollisionStatistics false
par Scenario.node[7].nic.phy80211p allowTxDuringRx false
scalar Scenario.node[7].nic.phy80211p busyTime 0.010465724907063
par Scenario.node[7].nic.mac1609_4 typename "\"org.car2x.veins.modules.mac.ieee80211p.Mac1609_4\""
par Scenario.node[7].nic.mac1609_4 notAffectedByHostState false
par Scenario.node[7].nic.mac1609_4 headerLength 0bit
attr unit bit
par Scenario.node[7].nic.mac1609_4 address "\"auto\""
par Scenario.node[7].nic.mac1609_4 useServiceChannel false
par Scenario.node[7].nic.mac1609_4 serviceChannel 1
par Scenario.node[7].nic.mac1609_4 bitrate 6000000bps
attr unit bps
par Scenario.node[7].nic.mac1609_4 syncOffset 0.0003s
attr unit s
par Scenario.node[7].nic.mac1609_4 txPower 20mW
attr unit mW
par Scenario.node[7].nic.mac1609_4 queueSize 0
par Scenario.node[7].nic.mac1609_4 dot11RTSThreshold 12000bit
attr unit bit
par Scenario.node[7].nic.mac1609_4 dot11ShortRetryLimit 7
par Scenario.node[7].nic.mac1609_4 dot11LongRetryLimit 4
par Scenario.node[7].nic.mac1609_4 ackLength 112bit
attr unit bit
par Scenario.node[7].nic.mac1609_4 useAcks false
par Scenario.node[7].nic.mac1609_4 frameErrorRate 0
par Scenario.node[7].nic.mac1609_4 ackErrorRate 0
scalar Scenario.node[7].nic.mac1609_4 ReceivedUnicastPackets 0
scalar Scenario.node[7].nic.mac1609_4 ReceivedBroadcasts 2286
scalar Scenario.node[7].nic.mac1609_4 SentPackets 269
scalar Scenario.node[7].nic.mac1609_4 SentAcknowledgements 0
scalar Scenario.node[7].nic.mac1609_4 RetriesExceeded 0
scalar Scenario.node[7].nic.mac1609_4 SNIRLostPackets 421
scalar Scenario.node[7].nic.mac1609_4 RXTXLostPackets 0
scalar Scenario.node[7].nic.mac1609_4 TotalLostPackets 421
scalar Scenario.node[7].nic.mac1609_4 DroppedPacketsInMac 0
scalar Scenario.node[7].nic.mac1609_4 TooLittleTime 0
scalar Scenario.node[7].nic.mac1609_4 TimesIntoBackoff 269
scalar Scenario.node[7].nic.mac1609_4 SlotsBackoff 376
scalar Scenario.node[7].nic.mac1609_4 NumInternalContention 0
scalar Scenario.node[7].nic.mac1609_4 totalBusyTime 0.303525544465
scalar Scenario.node[7].nic.mac1609_4 retriesExceeded:count 0
attr recordingmode count
attr source org_car2x_veins_modules_mac_sigRetriesExceeded
scalar Scenario.node[7].nic.mac1609_4 sentAcks:count 0
attr recordingmode count
attr source org_car2x_veins_modules_mac_sigSentAck
scalar Scenario.node[7].nic.mac1609_4 sentPackets:count 269
attr recordingmode count
attr source org_car2x_veins_modules_mac_sigSentPacket
scalar Scenario.node[7].nic.mac1609_4 collisions:count 0
attr recordingmode count
attr source org_car2x_veins_modules_mac_sigCollision
scalar Scenario.node[7].nic.mac1609_4 channelBusy:timeavg 0.011283477489405
attr recordingmode timeavg
attr source org_car2x_veins_modules_mac_sigChannelBusy
par Scenario.node[7].nic typename "\"org.car2x.veins.modules.nic.Nic80211p\""
par Scenario.node[7].nic connectionManagerName "\"connectionManager\""
par Scenario.node[7].veinsmobility typename "\"org.car2x.veins.modules.mobility.traci.TraCIMobility\""
par Scenario.node[7].veinsmobility notAffectedByHostState true
par Scenario.node[7].veinsmobility x 0
par Scenario.node[7].veinsmobility y 0
par Scenario.node[7].veinsmobility z 1.895
par Scenario.node[7].veinsmobility xOrientation 1
par Scenario.node[7].veinsmobility yOrientation 0
par Scenario.node[7].veinsmobility zOrientation 0
par Scenario.node[7].veinsmobility hostPositionOffset 0m
attr unit m
par Scenario.node[7].veinsmobility setHostSpeed false
par Scenario.node[7].veinsmobility accidentCount 0
par Scenario.node[7].veinsmobility accidentStart 35.3103s
attr unit s
par Scenario.node[7].veinsmobility accidentDuration "uniform(30s, 60s)"
attr unit s
par Scenario.node[7].veinsmobility accidentInterval "uniform(30s, 60s)"
attr unit s
scalar Scenario.node[7].veinsmobility startTime 7.1
scalar Scenario.node[7].veinsmobility totalTime 26.8
scalar Scenario.node[7].veinsmobility stopTime 34
scalar Scenario.node[7].veinsmobility minSpeed 0.25315930550685
scalar Scenario.node[7].veinsmobility maxSpeed 12.840765110317
scalar Scenario.node[7].veinsmobility totalDistance 279.39871335745
scalar Scenario.node[7].veinsmobility totalCO2Emission 84.73757294751
par Scenario.node[7] typename "\"org.car2x.veins.nodes.Car\""
par Scenario.node[7] applType "\"TraCIDemo11p\""
par Scenario.node[7] nicType "\"Nic80211p\""
par Scenario.node[7] veinsmobilityType "\"org.car2x.veins.modules.mobility.traci.TraCIMobility\""
par Scenario.node[0].appl typename "\"org.car2x.veins.modules.application.traci.TraCIDemo11p\""
par Scenario.node[0].appl headerLength 80bit
attr unit bit
par Scenario.node[0].appl sendBeacons true
par Scenario.node[0].appl beaconLengthBits 256bit
attr unit bit
par Scenario.node[0].appl beaconUserPriority 7
par Scenario.node[0].appl beaconInterval 0.1s
attr unit s
par Scenario.node[0].appl dataLengthBits 1024bit
attr unit bit
par Scenario.node[0].appl dataOnSch false
par Scenario.node[0].appl dataUserPriority 7
par Scenario.node[0].appl avoidBeaconSynchronization true
par Scenario.node[0].appl sendWSA false
par Scenario.node[0].appl wsaLengthBits 250bit
attr unit bit
par Scenario.node[0].appl wsaInterval 1s
attr unit s
scalar Scenario.node[0].appl generatedWSMs 1
scalar Scenario.node[0].appl receivedWSMs 13
scalar Scenario.node[0].appl generatedBSMs 500
scalar Scenario.node[0].appl receivedBSMs 3527
scalar Scenario.node[0].appl generatedWSAs 0
scalar Scenario.node[0].appl receivedWSAs 0
par Scenario.node[0].nic.phy80211p typename "\"org.car2x.veins.modules.phy.PhyLayer80211p\""
par Scenario.node[0].nic.phy80211p recordStats false
par Scenario.node[0].nic.phy80211p usePropagationDelay true
par Scenario.node[0].nic.phy80211p noiseFloor -98dBm
attr unit dBm
par Scenario.node[0].nic.phy80211p useNoiseFloor true
par Scenario.node[0].nic.phy80211p antenna "<root>...</root> at content:1"
par Scenario.node[0].nic.phy80211p antennaOffsetX 0m
attr unit m
par Scenario.node[0].nic.phy80211p antennaOffsetY 0m
attr unit m
par Scenario.node[0].nic.phy80211p antennaOffsetZ 1.895m
attr unit m
par Scenario.node[0].nic.phy80211p antennaOffsetYaw 0rad
attr unit rad
par Scenario.node[0].nic.phy80211p analogueModels "<root>...</root> at /home/vagrant/spe-homework-project/Project/simulations//config_3.xml:2"
par Scenario.node[0].nic.phy80211p decider "<root>...</root> at /home/vagrant/spe-homework-project/Project/simulations//config_3.xml:2"
par Scenario.node[0].nic.phy80211p minPowerLevel -110dBm
attr unit dBm
par Scenario.node[0].nic.phy80211p timeRXToTX 0s
attr unit s
par Scenario.node[0].nic.phy80211p timeRXToSleep 0s
attr unit s
par Scenario.node[0].nic.phy80211p timeTXToRX 0s
attr unit s
par Scenario.node[0].nic.phy80211p timeTXToSleep 0s
attr unit s
par Scenario.node[0].nic.phy80211p timeSleepToRX 0s
attr unit s
par Scenario.node[0].nic.phy80211p timeSleepToTX 0s
attr unit s
par Scenario.node[0].nic.phy80211p initialRadioState 0
par Scenario.node[0].nic.phy80211p radioMinAtt 1
par Scenario.node[0].nic.phy80211p radioMaxAtt 0
par Scenario.node[0].nic.phy80211p nbRadioChannels 1
par Scenario.node[0].nic.phy80211p initialRadioChannel 0
par Scenario.node[0].nic.phy80211p ccaThreshold -65dBm
attr unit dBm
par Scenario.node[0].nic.phy80211p collectCollisionStatistics false
par Scenario.node[0].nic.phy80211p allowTxDuringRx false
scalar Scenario.node[0].nic.phy80211p busyTime 0.0085451199999997
par Scenario.node[0].nic.mac1609_4 typename "\"org.car2x.veins.modules.mac.ieee80211p.Mac1609_4\""
par Scenario.node[0].nic.mac1609_4 notAffectedByHostState false
par Scenario.node[0].nic.mac1609_4 headerLength 0bit
attr unit bit
par Scenario.node[0].nic.mac1609_4 address "\"auto\""
par Scenario.node[0].nic.mac1609_4 useServiceChannel false
par Scenario.node[0].nic.mac1609_4 serviceChannel 1
par Scenario.node[0].nic.mac1609_4 bitrate 6000000bps
attr unit bps
par Scenario.node[0].nic.mac1609_4 syncOffset 0.0003s
attr unit s
par Scenario.node[0].nic.mac1609_4 txPower 20mW
attr unit mW
par Scenario.node[0].nic.mac1609_4 queueSize 0
par Scenario.node[0].nic.mac1609_4 dot11RTSThreshold 12000bit
attr unit bit
par Scenario.node[0].nic.mac1609_4 dot11ShortRetryLimit 7
par Scenario.node[0].nic.mac1609_4 dot11LongRetryLimit 4
par Scenario.node[0].nic.mac1609_4 ackLength 112bit
attr unit bit
par Scenario.node[0].nic.mac1609_4 useAcks false
par Scenario.node[0].nic.mac1609_4 frameErrorRate 0
par Scenario.node[0].nic.mac1609_4 ackErrorRate 0
scalar Scenario.node[0].nic.mac1609_4 ReceivedUnicastPackets 0
scalar Scenario.node[0].nic.mac1609_4 ReceivedBroadcasts 3540
scalar Scenario.node[0].nic.mac1609_4 SentPackets 501
scalar Scenario.node[0].nic.mac1609_4 SentAcknowledgements 0
scalar Scenario.node[0].nic.mac1609_4 RetriesExceeded 0
scalar Scenario.node[0].nic.mac1609_4 SNIRLostPackets 551
scalar Scenario.node[0].nic.mac1609_4 RXTXLostPackets 0
scalar Scenario.node[0].nic.mac1609_4 TotalLostPackets 551
scalar Scenario.node[0].nic.mac1609_4 DroppedPacketsInMac 0
scalar Scenario.node[0].nic.mac1609_4 TooLittleTime 0
scalar Scenario.node[0].nic.mac1609_4 TimesIntoBackoff 501
scalar Scenario.node[0].nic.mac1609_4 SlotsBackoff 731
scalar Scenario.node[0].nic.mac1609_4 NumInternalContention 0
scalar Scenario.node[0].nic.mac1609_4 totalBusyTime 0.479885
scalar Scenario.node[0].nic.mac1609_4 retriesExceeded:count 0
attr recordingmode count
attr source org_car2x_veins_modules_mac_sigRetriesExceeded
scalar Scenario.node[0].nic.mac1609_4 sentAcks:count 0
attr recordingmode count
attr source org_car2x_veins_modules_mac_sigSentAck
scalar Scenario.node[0].nic.mac1609_4 sentPackets:count 501
attr recordingmode count
attr source org_car2x_veins_modules_mac_sigSentPacket
scalar Scenario.node[0].nic.mac1609_4 collisions:count 0
attr recordingmode count
attr source org_car2x_veins_modules_mac_sigCollision
scalar Scenario.node[0].nic.mac1609_4 channelBusy:timeavg 0.0095976999999997
attr recordingmode timeavg
attr source org_car2x_veins_modules_mac_sigChannelBusy
par Scenario.node[0].nic typename "\"org.car2x.veins.modules.nic.Nic80211p\""
par Scenario.node[0].nic connectionManagerName "\"connectionManager\""
par Scenario.node[0].veinsmobility typename "\"org.car2x.veins.modules.mobility.traci.TraCIMobility\""
par Scenario.node[0].veinsmobility notAffectedByHostState true
par Scenario.node[0].veinsmobility x 0
par Scenario.node[0].veinsmobility y 0
par Scenario.node[0].veinsmobility z 1.895
par Scenario.node[0].veinsmobility xOrientation 1
par Scenario.node[0].veinsmobility yOrientation 0
par Scenario.node[0].veinsmobility zOrientation 0
par Scenario.node[0].veinsmobility hostPositionOffset 0m
attr unit m
par Scenario.node[0].veinsmobility setHostSpeed false
par Scenario.node[0].veinsmobility accidentCount 0
par Scenario.node[0].veinsmobility accidentStart 42.5107s
attr unit s
par Scenario.node[0].veinsmobility accidentDuration "uniform(30s, 60s)"
attr unit s
par Scenario.node[0].veinsmobility accidentInterval "uniform(30s, 60s)"
attr unit s
scalar Scenario.node[0].veinsmobility startTime 0.1
scalar Scenario.node[0].veinsmobility totalTime 49.9
scalar Scenario.node[0].veinsmobility stopTime 50.1
scalar Scenario.node[0].veinsmobility minSpeed 0.25052282136376
scalar Scenario.node[0].veinsmobility maxSpeed 14.104967919164
scalar Scenario.node[0].veinsmobility totalDistance 570.85190060133
scalar Scenario.node[0].veinsmobility totalCO2Emission 164.20714291006
par Scenario.node[0] typename "\"org.car2x.veins.nodes.Car\""
par Scenario.node[0] applType "\"TraCIDemo11p\""
par Scenario.node[0] nicType "\"Nic80211p\""
par Scenario.node[0] veinsmobilityType "\"org.car2x.veins.modules.mobility.traci.TraCIMobility\""
par Scenario.node[10].appl typename "\"org.car2x.veins.modules.application.traci.TraCIDemo11p\""
par Scenario.node[10].appl headerLength 80bit
attr unit bit
par Scenario.node[10].appl sendBeacons true
par Scenario.node[10].appl beaconLengthBits 256bit
attr unit bit
par Scenario.node[10].appl beaconUserPriority 7
par Scenario.node[10].appl beaconInterval 0.1s
attr unit s
par Scenario.node[10].appl dataLengthBits 1024bit
attr unit bit
par Scenario.node[10].appl dataOnSch false
par Scenario.node[10].appl dataUserPriority 7
par Scenario.node[10].appl avoidBeaconSynchronization true
par Scenario.node[10].appl sendWSA false
par Scenario.node[10].appl wsaLengthBits 250bit
attr unit bit
par Scenario.node[10].appl wsaInterval 1s
attr unit s
scalar Scenario.node[10].appl generatedWSMs 1
scalar Scenario.node[10].appl receivedWSMs 22
scalar Scenario.node[10].appl generatedBSMs 401
scalar Scenario.node[10].appl receivedBSMs 4287
scalar Scenario.node[10].appl generatedWSAs 0
scalar Scenario.node[10].appl receivedWSAs 0
par Scenario.node[10].nic.phy80211p typename "\"org.car2x.veins.modules.phy.PhyLayer80211p\""
par Scenario.node[10].nic.phy80211p recordStats false
par Scenario.node[10].nic.phy80211p usePropagationDelay true
par Scenario.node[10].nic.phy80211p noiseFloor -98dBm
attr unit dBm
par Scenario.node[10].nic.phy80211p useNoiseFloor true
par Scenario.node[10].nic.phy80211p antenna "<root>...</root> at content:1"
par Scenario.node[10].nic.phy80211p antennaOffsetX 0m
attr unit m
par Scenario.node[10].nic.phy80211p antennaOffsetY 0m
attr unit m
par Scenario.node[10].nic.phy80211p antennaOffsetZ 1.895m
attr unit m
par Scenario.node[10].nic.phy80211p antennaOffsetYaw 0rad
attr unit rad
par Scenario.node[10].nic.phy80211p analogueModels "<root>...</root> at /home/vagrant/spe-homework-project/Project/simulations//config_3.xml:2"
par Scenario.node[10].nic.phy80211p decider "<root>...</root> at /home/vagrant/spe-homework-project/Project/simulations//config_3.xml:2"
par Scenario.node[10].nic.phy80211p minPowerLevel -110dBm
attr unit dBm
par Scenario.node[10].nic.phy80211p timeRXToTX 0s
attr unit s
par Scenario.node[10].nic.phy80211p timeRXToSleep 0s
attr unit s
par Scenario.node[10].nic.phy80211p timeTXToRX 0s
attr unit s
par Scenario.node[10].nic.phy80211p timeTXToSleep 0s
attr unit s
par Scenario.node[10].nic.phy80211p timeSleepToRX 0s
attr unit s
par Scenario.node[10].nic.phy80211p timeSleepToTX 0s
attr unit s
par Scenario.node[10].nic.phy80211p initialRadioState 0
par Scenario.node[10].nic.phy80211p radioMinAtt 1
par Scenario.node[10].nic.phy80211p radioMaxAtt 0
par Scenario.node[10].nic.phy80211p nbRadioChannels 1
par Scenario.node[10].nic.phy80211p initialRadioChannel 0
par Scenario.node[10].nic.phy80211p ccaThreshold -65dBm
attr unit dBm
par Scenario.node[10].nic.phy80211p collectCollisionStatistics false
par Scenario.node[10].nic.phy80211p allowTxDuringRx false
scalar Scenario.node[10].nic.phy80211p busyTime 0.013451371571072
par Scenario.node[10].nic.mac1609_4 typename "\"org.car2x.veins.modules.mac.ieee80211p.Mac1609_4\""
par Scenario.node[10].nic.mac1609_4 notAffectedByHostState false
par Scenario.node[10].nic.mac1609_4 headerLength 0bit
attr unit bit
par Scenario.node[10].nic.mac1609_4 address "\"auto\""
par Scenario.node[10].nic.mac1609_4 useServiceChannel false
par Scenario.node[10].nic.mac1609_4 serviceChannel 1
par Scenario.node[10].nic.mac1609_4 bitrate 6000000bps
attr unit bps
par Scenario.node[10].nic.mac1609_4 syncOffset 0.0003s
attr unit s
par Scenario.node[10].nic.mac1609_4 txPower 20mW
attr unit mW
par Scenario.node[10].nic.mac1609_4 queueSize 0
par Scenario.node[10].nic.mac1609_4 dot11RTSThreshold 12000bit
attr unit bit
par Scenario.node[10].nic.mac1609_4 dot11ShortRetryLimit 7
par Scenario.node[10].nic.mac1609_4 dot11LongRetryLimit 4
par Scenario.node[10].nic.mac1609_4 ackLength 112bit
attr unit bit
par Scenario.node[10].nic.mac1609_4 useAcks false
par Scenario.node[10].nic.mac1609_4 frameErrorRate 0
par Scenario.node[10].nic.mac1609_4 ackErrorRate 0
scalar Scenario.node[10].nic.mac1609_4 ReceivedUnicastPackets 0
scalar Scenario.node[10].nic.mac1609_4 ReceivedBroadcasts 4309
scalar Scenario.node[10].nic.mac1609_4 SentPackets 402
scalar Scenario.node[10].nic.mac1609_4 SentAcknowledgements 0
scalar Scenario.node[10].nic.mac1609_4 RetriesExceeded 0
scalar Scenario.node[10].nic.mac1609_4 SNIRLostPackets 848
scalar Scenario.node[10].nic.mac1609_4 RXTXLostPackets 0
scalar Scenario.node[10].nic.mac1609_4 TotalLostPackets 848
scalar Scenario.node[10].nic.mac1609_4 DroppedPacketsInMac 0
scalar Scenario.node[10].nic.mac1609_4 TooLittleTime 0
scalar Scenario.node[10].nic.mac1609_4 TimesIntoBackoff 530
scalar Scenario.node[10].nic.mac1609_4 SlotsBackoff 827
scalar Scenario.node[10].nic.mac1609_4 NumInternalContention 0
scalar Scenario.node[10].nic.mac1609_4 totalBusyTime 0.56645
scalar Scenario.node[10].nic.mac1609_4 retriesExceeded:count 0
attr recordingmode count
attr source org_car2x_veins_modules_mac_sigRetriesExceeded
scalar Scenario.node[10].nic.mac1609_4 sentAcks:count 0
attr recordingmode count
attr source org_car2x_veins_modules_mac_sigSentAck
scalar Scenario.node[10].nic.mac1609_4 sentPackets:count 402
attr recordingmode count
attr source org_car2x_veins_modules_mac_sigSentPacket
scalar Scenario.node[10].nic.mac1609_4 collisions:count 0
attr recordingmode count
attr source org_car2x_veins_modules_mac_sigCollision
scalar Scenario.node[10].nic.mac1609_4 channelBusy:timeavg 0.014125935162094
attr recordingmode timeavg
attr source org_car2x_veins_modules_mac_sigChannelBusy
par Scenario.node[10].nic typename "\"org.car2x.veins.modules.nic.Nic80211p\""
par Scenario.node[10].nic connectionManagerName "\"connectionManager\""
par Scenario.node[10].veinsmobility typename "\"org.car2x.veins.modules.mobility.traci.TraCIMobility\""
par Scenario.node[10].veinsmobility notAffectedByHostState true
par Scenario.node[10].veinsmobility x 0
par Scenario.node[10].veinsmobility y 0
par Scenario.node[10].veinsmobility z 1.895
par Scenario.node[10].veinsmobility xOrientation 1
par Scenario.node[10].veinsmobility yOrientation 0
par Scenario.node[10].veinsmobility zOrientation 0
par Scenario.node[10].veinsmobility hostPositionOffset 0m
attr unit m
par Scenario.node[10].veinsmobility setHostSpeed false
par Scenario.node[10].veinsmobility accidentCount 0
par Scenario.node[10].veinsmobility accidentStart 51.5428s
attr unit s
par Scenario.node[10].veinsmobility accidentDuration "uniform(30s, 60s)"
attr unit s
par Scenario.node[10].veinsmobility accidentInterval "uniform(30s, 60s)"
attr unit s
scalar Scenario.node[10].veinsmobility startTime 11.1
scalar Scenario.node[10].veinsmobility totalTime 40
scalar Scenario.node[10].veinsmobility stopTime 51.2
scalar Scenario.node[10].veinsmobility minSpeed 0.25936657659966
scalar Scenario.node[10].veinsmobility maxSpeed 13.248033223235
scalar Scenario.node[10].veinsmobility totalDistance 428.70263756574
scalar Scenario.node[10].veinsmobility totalCO2Emission 131.01796603659
par Scenario.node[10] typename "\"org.car2x.veins.nodes.Car\""
par Scenario.node[10] applType "\"TraCIDemo11p\""
par Scenario.node[10] nicType "\"Nic80211p\""
par Scenario.node[10] veinsmobilityType "\"org.car2x.veins.modules.mobility.traci.TraCIMobility\""
par Scenario.node[1].appl typename "\"org.car2x.veins.modules.application.traci.TraCIDemo11p\""
par Scenario.node[1].appl headerLength 80bit
attr unit bit
par Scenario.node[1].appl sendBeacons true
par Scenario.node[1].appl beaconLengthBits 256bit
attr unit bit
par Scenario.node[1].appl beaconUserPriority 7
par Scenario.node[1].appl beaconInterval 0.1s
attr unit s
par Scenario.node[1].appl dataLengthBits 1024bit
attr unit bit
par Scenario.node[1].appl dataOnSch false
par Scenario.node[1].appl dataUserPriority 7
par Scenario.node[1].appl avoidBeaconSynchronization true
par Scenario.node[1].appl sendWSA false
par Scenario.node[1].appl wsaLengthBits 250bit
attr unit bit
par Scenario.node[1].appl wsaInterval 1s
attr unit s
scalar Scenario.node[1].appl generatedWSMs 1
scalar Scenario.node[1].appl receivedWSMs 14
scalar Scenario.node[1].appl generatedBSMs 502
scalar Scenario.node[1].appl receivedBSMs 4016
scalar Scenario.node[1].appl generatedWSAs 0
scalar Scenario.node[1].appl receivedWSAs 0
par Scenario.node[1].nic.phy80211p typename "\"org.car2x.veins.modules.phy.PhyLayer80211p\""
par Scenario.node[1].nic.phy80211p recordStats false
par Scenario.node[1].nic.phy80211p usePropagationDelay true
par Scenario.node[1].nic.phy80211p noiseFloor -98dBm
attr unit dBm
par Scenario.node[1].nic.phy80211p useNoiseFloor true
par Scenario.node[1].nic.phy80211p antenna "<root>...</root> at content:1"
par Scenario.node[1].nic.phy80211p antennaOffsetX 0m
attr unit m
par Scenario.node[1].nic.phy80211p antennaOffsetY 0m
attr unit m
par Scenario.node[1].nic.phy80211p antennaOffsetZ 1.895m
attr unit m
par Scenario.node[1].nic.phy80211p antennaOffsetYaw 0rad
attr unit rad
par Scenario.node[1].nic.phy80211p analogueModels "<root>...</root> at /home/vagrant/spe-homework-project/Project/simulations//config_3.xml:2"
par Scenario.node[1].nic.phy80211p decider "<root>...</root> at /home/vagrant/spe-homework-project/Project/simulations//config_3.xml:2"
par Scenario.node[1].nic.phy80211p minPowerLevel -110dBm
attr unit dBm
par Scenario.node[1].nic.phy80211p timeRXToTX 0s
attr unit s
par Scenario.node[1].nic.phy80211p timeRXToSleep 0s
attr unit s
par Scenario.node[1].nic.phy80211p timeTXToRX 0s
attr unit s
par Scenario.node[1].nic.phy80211p timeTXToSleep 0s
attr unit s
par Scenario.node[1].nic.phy80211p timeSleepToRX 0s
attr unit s
par Scenario.node[1].nic.phy80211p timeSleepToTX 0s
attr unit s
par Scenario.node[1].nic.phy80211p initialRadioState 0
par Scenario.node[1].nic.phy80211p radioMinAtt 1
par Scenario.node[1].nic.phy80211p radioMaxAtt 0
par Scenario.node[1].nic.phy80211p nbRadioChannels 1
par Scenario.node[1].nic.phy80211p initialRadioChannel 0
par Scenario.node[1].nic.phy80211p ccaThreshold -65dBm
attr unit dBm
par Scenario.node[1].nic.phy80211p collectCollisionStatistics false
par Scenario.node[1].nic.phy80211p allowTxDuringRx false
scalar Scenario.node[1].nic.phy80211p busyTime 0.010400956175298
par Scenario.node[1].nic.mac1609_4 typename "\"org.car2x.veins.modules.mac.ieee80211p.Mac1609_4\""
par Scenario.node[1].nic.mac1609_4 notAffectedByHostState false
par Scenario.node[1].nic.mac1609_4 headerLength 0bit
attr unit bit
par Scenario.node[1].nic.mac1609_4 address "\"auto\""
par Scenario.node[1].nic.mac1609_4 useServiceChannel false
par Scenario.node[1].nic.mac1609_4 serviceChannel 1
par Scenario.node[1].nic.mac1609_4 bitrate 6000000bps
attr unit bps
par Scenario.node[1].nic.mac1609_4 syncOffset 0.0003s
attr unit s
par Scenario.node[1].nic.mac1609_4 txPower 20mW
attr unit mW
par Scenario.node[1].nic.mac1609_4 queueSize 0
par Scenario.node[1].nic.mac1609_4 dot11RTSThreshold 12000bit
attr unit bit
par Scenario.node[1].nic.mac1609_4 dot11ShortRetryLimit 7
par Scenario.node[1].nic.mac1609_4 dot11LongRetryLimit 4
par Scenario.node[1].nic.mac1609_4 ackLength 112bit
attr unit bit
par Scenario.node[1].nic.mac1609_4 useAcks false
par Scenario.node[1].nic.mac1609_4 frameErrorRate 0
par Scenario.node[1].nic.mac1609_4 ackErrorRate 0
scalar Scenario.node[1].nic.mac1609_4 ReceivedUnicastPackets 0
scalar Scenario.node[1].nic.mac1609_4 ReceivedBroadcasts 4030
scalar Scenario.node[1].nic.mac1609_4 SentPackets 503
scalar Scenario.node[1].nic.mac1609_4 SentAcknowledgements 0
scalar Scenario.node[1].nic.mac1609_4 RetriesExceeded 0
scalar Scenario.node[1].nic.mac1609_4 SNIRLostPackets 972
scalar Scenario.node[1].nic.mac1609_4 RXTXLostPackets 0
scalar Scenario.node[1].nic.mac1609_4 TotalLostPackets 972
scalar Scenario.node[1].nic.mac1609_4 DroppedPacketsInMac 0
scalar Scenario.node[1].nic.mac1609_4 TooLittleTime 0
scalar Scenario.node[1].nic.mac1609_4 TimesIntoBackoff 503
scalar Scenario.node[1].nic.mac1609_4 SlotsBackoff 712
scalar Scenario.node[1].nic.mac1609_4 NumInternalContention 0
scalar Scenario.node[1].nic.mac1609_4 totalBusyTime 0.549282457079
scalar Scenario.node[1].nic.mac1609_4 retriesExceeded:count 0
attr recordingmode count
attr source org_car2x_veins_modules_mac_sigRetriesExceeded
scalar Scenario.node[1].nic.mac1609_4 sentAcks:count 0
attr recordingmode count
attr source org_car2x_veins_modules_mac_sigSentAck
scalar Scenario.node[1].nic.mac1609_4 sentPackets:count 503
attr recordingmode count
attr source org_car2x_veins_modules_mac_sigSentPacket
scalar Scenario.node[1].nic.mac1609_4 collisions:count 0
attr recordingmode count
attr source org_car2x_veins_modules_mac_sigCollision
scalar Scenario.node[1].nic.mac1609_4 channelBusy:timeavg 0.010941881615119
attr recordingmode timeavg
attr source org_car2x_veins_modules_mac_sigChannelBusy
par Scenario.node[1].nic typename "\"org.car2x.veins.modules.nic.Nic80211p\""
par Scenario.node[1].nic connectionManagerName "\"connectionManager\""
par Scenario.node[1].veinsmobility typename "\"org.car2x.veins.modules.mobility.traci.TraCIMobility\""
par Scenario.node[1].veinsmobility notAffectedByHostState true
par Scenario.node[1].veinsmobility x 0
par Scenario.node[1].veinsmobility y 0
par Scenario.node[1].veinsmobility z 1.895
par Scenario.node[1].veinsmobility xOrientation 1
par Scenario.node[1].veinsmobility yOrientation 0
par Scenario.node[1].veinsmobility zOrientation 0
par Scenario.node[1].veinsmobility hostPositionOffset 0m
attr unit m
par Scenario.node[1].veinsmobility setHostSpeed false
par Scenario.node[1].veinsmobility accidentCount 0
par Scenario.node[1].veinsmobility accidentStart 50.0924s
attr unit s
par Scenario.node[1].veinsmobility accidentDuration "uniform(30s, 60s)"
attr unit s
par Scenario.node[1].veinsmobility accidentInterval "uniform(30s, 60s)"
attr unit s
scalar Scenario.node[1].veinsmobility startTime 1.1
scalar Scenario.node[1].veinsmobility totalTime 50.1
scalar Scenario.node[1].veinsmobility stopTime 51.3
scalar Scenario.node[1].veinsmobility minSpeed 0.040700542198414
scalar Scenario.node[1].veinsmobility maxSpeed 13.099703292946
scalar Scenario.node[1].veinsmobility totalDistance 425.55494703262
scalar Scenario.node[1].veinsmobility totalCO2Emission 140.58542084614
par Scenario.node[1] typename "\"org.car2x.veins.nodes.Car\""
par Scenario.node[1] applType "\"TraCIDemo11p\""
par Scenario.node[1] nicType "\"Nic80211p\""
par Scenario.node[1] veinsmobilityType "\"org.car2x.veins.modules.mobility.traci.TraCIMobility\""
par Scenario.node[2].appl typename "\"org.car2x.veins.modules.application.traci.TraCIDemo11p\""
par Scenario.node[2].appl headerLength 80bit
attr unit bit
par Scenario.node[2].appl sendBeacons true
par Scenario.node[2].appl beaconLengthBits 256bit
attr unit bit
par Scenario.node[2].appl beaconUserPriority 7
par Scenario.node[2].appl beaconInterval 0.1s
attr unit s
par Scenario.node[2].appl dataLengthBits 1024bit
attr unit bit
par Scenario.node[2].appl dataOnSch false
par Scenario.node[2].appl dataUserPriority 7
par Scenario.node[2].appl avoidBeaconSynchronization true
par Scenario.node[2].appl sendWSA false
par Scenario.node[2].appl wsaLengthBits 250bit
attr unit bit
par Scenario.node[2].appl wsaInterval 1s
attr unit s
scalar Scenario.node[2].appl generatedWSMs 1
scalar Scenario.node[2].appl receivedWSMs 17
scalar Scenario.node[2].appl generatedBSMs 533
scalar Scenario.node[2].appl receivedBSMs 4965
scalar Scenario.node[2].appl generatedWSAs 0
scalar Scenario.node[2].appl receivedWSAs 0
par Scenario.node[2].nic.phy80211p typename "\"org.car2x.veins.modules.phy.PhyLayer80211p\""
par Scenario.node[2].nic.phy80211p recordStats false
par Scenario.node[2].nic.phy80211p usePropagationDelay true
par Scenario.node[2].nic.phy80211p noiseFloor -98dBm
attr unit dBm
par Scenario.node[2].nic.phy80211p useNoiseFloor true
par Scenario.node[2].nic.phy80211p antenna "<root>...</root> at content:1"
par Scenario.node[2].nic.phy80211p antennaOffsetX 0m
attr unit m
par Scenario.node[2].nic.phy80211p antennaOffsetY 0m
attr unit m
par Scenario.node[2].nic.phy80211p antennaOffsetZ 1.895m
attr unit m
par Scenario.node[2].nic.phy80211p antennaOffsetYaw 0rad
attr unit rad
par Scenario.node[2].nic.phy80211p analogueModels "<root>...</root> at /home/vagrant/spe-homework-project/Project/simulations//config_3.xml:2"
par Scenario.node[2].nic.phy80211p decider "<root>...</root> at /home/vagrant/spe-homework-project/Project/simulations//config_3.xml:2"
par Scenario.node[2].nic.phy80211p minPowerLevel -110dBm
attr unit dBm
par Scenario.node[2].nic.phy80211p timeRXToTX 0s
attr unit s
par Scenario.node[2].nic.phy80211p timeRXToSleep 0s
attr unit s
par Scenario.node[2].nic.phy80211p timeTXToRX 0s
attr unit s
par Scenario.node[2].nic.phy80211p timeTXToSleep 0s
attr unit s
par Scenario.node[2].nic.phy80211p timeSleepToRX 0s
attr unit s
par Scenario.node[2].nic.phy80211p timeSleepToTX 0s
attr unit s
par Scenario.node[2].nic.phy80211p initialRadioState 0
par Scenario.node[2].nic.phy80211p radioMinAtt 1
par Scenario.node[2].nic.phy80211p radioMaxAtt 0
par Scenario.node[2].nic.phy80211p nbRadioChannels 1
par Scenario.node[2].nic.phy80211p initialRadioChannel 0
par Scenario.node[2].nic.phy80211p ccaThreshold -65dBm
attr unit dBm
par Scenario.node[2].nic.phy80211p collectCollisionStatistics false
par Scenario.node[2].nic.phy80211p allowTxDuringRx false
scalar Scenario.node[2].nic.phy80211p busyTime 0.011631819887429
par Scenario.node[2].nic.mac1609_4 typename "\"org.car2x.veins.modules.mac.ieee80211p.Mac1609_4\""
par Scenario.node[2].nic.mac1609_4 notAffectedByHostState false
par Scenario.node[2].nic.mac1609_4 headerLength 0bit
attr unit bit
par Scenario.node[2].nic.mac1609_4 address "\"auto\""
par Scenario.node[2].nic.mac1609_4 useServiceChannel false
par Scenario.node[2].nic.mac1609_4 serviceChannel 1
par Scenario.node[2].nic.mac1609_4 bitrate 6000000bps
attr unit bps
par Scenario.node[2].nic.mac1609_4 syncOffset 0.0003s
attr unit s
par Scenario.node[2].nic.mac1609_4 txPower 20mW
attr unit mW
par Scenario.node[2].nic.mac1609_4 queueSize 0
par Scenario.node[2].nic.mac1609_4 dot11RTSThreshold 12000bit
attr unit bit
par Scenario.node[2].nic.mac1609_4 dot11ShortRetryLimit 7
par Scenario.node[2].nic.mac1609_4 dot11LongRetryLimit 4
par Scenario.node[2].nic.mac1609_4 ackLength 112bit
attr unit bit
par Scenario.node[2].nic.mac1609_4 useAcks false
par Scenario.node[2].nic.mac1609_4 frameErrorRate 0
par Scenario.node[2].nic.mac1609_4 ackErrorRate 0
scalar Scenario.node[2].nic.mac1609_4 ReceivedUnicastPackets 0
scalar Scenario.node[2].nic.mac1609_4 ReceivedBroadcasts 4982
scalar Scenario.node[2].nic.mac1609_4 SentPackets 534
scalar Scenario.node[2].nic.mac1609_4 SentAcknowledgements 0
scalar Scenario.node[2].nic.mac1609_4 RetriesExceeded 0
scalar Scenario.node[2].nic.mac1609_4 SNIRLostPackets 951
scalar Scenario.node[2].nic.mac1609_4 RXTXLostPackets 0
scalar Scenario.node[2].nic.mac1609_4 TotalLostPackets 951
scalar Scenario.node[2].nic.mac1609_4 DroppedPacketsInMac 0
scalar Scenario.node[2].nic.mac1609_4 TooLittleTime 0
scalar Scenario.node[2].nic.mac1609_4 TimesIntoBackoff 534
scalar Scenario.node[2].nic.mac1609_4 SlotsBackoff 798
scalar Scenario.node[2].nic.mac1609_4 NumInternalContention 0
scalar Scenario.node[2].nic.mac1609_4 totalBusyTime 0.660942
scalar Scenario.node[2].nic.mac1609_4 retriesExceeded:count 0
attr recordingmode count
attr source org_car2x_veins_modules_mac_sigRetriesExceeded
scalar Scenario.node[2].nic.mac1609_4 sentAcks:count 0
attr recordingmode count
attr source org_car2x_veins_modules_mac_sigSentAck
scalar Scenario.node[2].nic.mac1609_4 sentPackets:count 534
attr recordingmode count
attr source org_car2x_veins_modules_mac_sigSentPacket
scalar Scenario.node[2].nic.mac1609_4 collisions:count 0
attr recordingmode count
attr source org_car2x_veins_modules_mac_sigCollision
scalar Scenario.node[2].nic.mac1609_4 channelBusy:timeavg 0.012400412757973
attr recordingmode timeavg
attr source org_car2x_veins_modules_mac_sigChannelBusy
par Scenario.node[2].nic typename "\"org.car2x.veins.modules.nic.Nic80211p\""
par Scenario.node[2].nic connectionManagerName "\"connectionManager\""
par Scenario.node[2].veinsmobility typename "\"org.car2x.veins.modules.mobility.traci.TraCIMobility\""
par Scenario.node[2].veinsmobility notAffectedByHostState true
par Scenario.node[2].veinsmobility x 0
par Scenario.node[2].veinsmobility y 0
par Scenario.node[2].veinsmobility z 1.895
par Scenario.node[2].veinsmobility xOrientation 1
par Scenario.node[2].veinsmobility yOrientation 0
par Scenario.node[2].veinsmobility zOrientation 0
par Scenario.node[2].veinsmobility hostPositionOffset 0m
attr unit m
par Scenario.node[2].veinsmobility setHostSpeed false
par Scenario.node[2].veinsmobility accidentCount 0
par Scenario.node[2].veinsmobility accidentStart 30.581s
attr unit s
par Scenario.node[2].veinsmobility accidentDuration "uniform(30s, 60s)"
attr unit s
par Scenario.node[2].veinsmobility accidentInterval "uniform(30s, 60s)"
attr unit s
scalar Scenario.node[2].veinsmobility startTime 2.1
scalar Scenario.node[2].veinsmobility totalTime 53.2
scalar Scenario.node[2].veinsmobility stopTime 55.4
scalar Scenario.node[2].veinsmobility minSpeed 0.25162613410479
scalar Scenario.node[2].veinsmobility maxSpeed 12.769762899468
scalar Scenario.node[2].veinsmobility totalDistance 576.93694164707
scalar Scenario.node[2].veinsmobility totalCO2Emission 155.29980284646
par Scenario.node[2] typename "\"org.car2x.veins.nodes.Car\""
par Scenario.node[2] applType "\"TraCIDemo11p\""
par Scenario.node[2] nicType "\"Nic80211p\""
par Scenario.node[2] veinsmobilityType "\"org.car2x.veins.modules.mobility.traci.TraCIMobility\""
par Scenario.node[16].appl typename "\"org.car2x.veins.modules.application.traci.TraCIDemo11p\""
par Scenario.node[16].appl headerLength 80bit
attr unit bit
par Scenario.node[16].appl sendBeacons true
par Scenario.node[16].appl beaconLengthBits 256bit
attr unit bit
par Scenario.node[16].appl beaconUserPriority 7
par Scenario.node[16].appl beaconInterval 0.1s
attr unit s
par Scenario.node[16].appl dataLengthBits 1024bit
attr unit bit
par Scenario.node[16].appl dataOnSch false
par Scenario.node[16].appl dataUserPriority 7
par Scenario.node[16].appl avoidBeaconSynchronization true
par Scenario.node[16].appl sendWSA false
par Scenario.node[16].appl wsaLengthBits 250bit
attr unit bit
par Scenario.node[16].appl wsaInterval 1s
attr unit s
scalar Scenario.node[16].appl generatedWSMs 1
scalar Scenario.node[16].appl receivedWSMs 16
scalar Scenario.node[16].appl generatedBSMs 471
scalar Scenario.node[16].appl receivedBSMs 6341
scalar Scenario.node[16].appl generatedWSAs 0
scalar Scenario.node[16].appl receivedWSAs 0
par Scenario.node[16].nic.phy80211p typename "\"org.car2x.veins.modules.phy.PhyLayer80211p\""
par Scenario.node[16].nic.phy80211p recordStats false
par Scenario.node[16].nic.phy80211p usePropagationDelay true
par Scenario.node[16].nic.phy80211p noiseFloor -98dBm
attr unit dBm
par Scenario.node[16].nic.phy80211p useNoiseFloor true
par Scenario.node[16].nic.phy80211p antenna "<root>...</root> at content:1"
par Scenario.node[16].nic.phy80211p antennaOffsetX 0m
attr unit m
par Scenario.node[16].nic.phy80211p antennaOffsetY 0m
attr unit m
par Scenario.node[16].nic.phy80211p antennaOffsetZ 1.895m
attr unit m
par Scenario.node[16].nic.phy80211p antennaOffsetYaw 0rad
attr unit rad
par Scenario.node[16].nic.phy80211p analogueModels "<root>...</root> at /home/vagrant/spe-homework-project/Project/simulations//config_3.xml:2"
par Scenario.node[16].nic.phy80211p decider "<root>...</root> at /home/vagrant/spe-homework-project/Project/simulations//config_3.xml:2"
par Scenario.node[16].nic.phy80211p minPowerLevel -110dBm
attr unit dBm
par Scenario.node[16].nic.phy80211p timeRXToTX 0s
attr unit s
par Scenario.node[16].nic.phy80211p timeRXToSleep 0s
attr unit s
par Scenario.node[16].nic.phy80211p timeTXToRX 0s
attr unit s
par Scenario.node[16].nic.phy80211p timeTXToSleep 0s
attr unit s
par Scenario.node[16].nic.phy80211p timeSleepToRX 0s
attr unit s
par Scenario.node[16].nic.phy80211p timeSleepToTX 0s
attr unit s
par Scenario.node[16].nic.phy80211p initialRadioState 0
par Scenario.node[16].nic.phy80211p radioMinAtt 1
par Scenario.node[16].nic.phy80211p radioMaxAtt 0
par Scenario.node[16].nic.phy80211p nbRadioChannels 1
par Scenario.node[16].nic.phy80211p initialRadioChannel 0
par Scenario.node[16].nic.phy80211p ccaThreshold -65dBm
attr unit dBm
par Scenario.node[16].nic.phy80211p collectCollisionStatistics false
par Scenario.node[16].nic.phy80211p allowTxDuringRx false
scalar Scenario.node[16].nic.phy80211p busyTime 0.016087643312101
par Scenario.node[16].nic.mac1609_4 typename "\"org.car2x.veins.modules.mac.ieee80211p.Mac1609_4\""
par Scenario.node[16].nic.mac1609_4 notAffectedByHostState false
par Scenario.node[16].nic.mac1609_4 headerLength 0bit
attr unit bit
par Scenario.node[16].nic.mac1609_4 address "\"auto\""
par Scenario.node[16].nic.mac1609_4 useServiceChannel false
par Scenario.node[16].nic.mac1609_4 serviceChannel 1
par Scenario.node[16].nic.mac1609_4 bitrate 6000000bps
attr unit bps
par Scenario.node[16].nic.mac1609_4 syncOffset 0.0003s
attr unit s
par Scenario.node[16].nic.mac1609_4 txPower 20mW
attr unit mW
par Scenario.node[16].nic.mac1609_4 queueSize 0
par Scenario.node[16].nic.mac1609_4 dot11RTSThreshold 12000bit
attr unit bit
par Scenario.node[16].nic.mac1609_4 dot11ShortRetryLimit 7
par Scenario.node[16].nic.mac1609_4 dot11LongRetryLimit 4
par Scenario.node[16].nic.mac1609_4 ackLength 112bit
attr unit bit
par Scenario.node[16].nic.mac1609_4 useAcks false
par Scenario.node[16].nic.mac1609_4 frameErrorRate 0
par Scenario.node[16].nic.mac1609_4 ackErrorRate 0
scalar Scenario.node[16].nic.mac1609_4 ReceivedUnicastPackets 0
scalar Scenario.node[16].nic.mac1609_4 ReceivedBroadcasts 6357
scalar Scenario.node[16].nic.mac1609_4 SentPackets 472
scalar Scenario.node[16].nic.mac1609_4 SentAcknowledgements 0
scalar Scenario.node[16].nic.mac1609_4 RetriesExceeded 0
scalar Scenario.node[16].nic.mac1609_4 SNIRLostPackets 903
scalar Scenario.node[16].nic.mac1609_4 RXTXLostPackets 0
scalar Scenario.node[16].nic.mac1609_4 TotalLostPackets 903
scalar Scenario.node[16].nic.mac1609_4 DroppedPacketsInMac 0
scalar Scenario.node[16].nic.mac1609_4 TooLittleTime 0
scalar Scenario.node[16].nic.mac1609_4 TimesIntoBackoff 608
scalar Scenario.node[16].nic.mac1609_4 SlotsBackoff 870
scalar Scenario.node[16].nic.mac1609_4 NumInternalContention 0
scalar Scenario.node[16].nic.mac1609_4 totalBusyTime 0.8024
scalar Scenario.node[16].nic.mac1609_4 retriesExceeded:count 0
attr recordingmode count
attr source org_car2x_veins_modules_mac_sigRetriesExceeded
scalar Scenario.node[16].nic.mac1609_4 sentAcks:count 0
attr recordingmode count
attr source org_car2x_veins_modules_mac_sigSentAck
scalar Scenario.node[16].nic.mac1609_4 sentPackets:count 472
attr recordingmode count
attr source org_car2x_veins_modules_mac_sigSentPacket
scalar Scenario.node[16].nic.mac1609_4 collisions:count 0
attr recordingmode count
attr source org_car2x_veins_modules_mac_sigCollision
scalar Scenario.node[16].nic.mac1609_4 channelBusy:timeavg 0.017036093418258
attr recordingmode timeavg
attr source org_car2x_veins_modules_mac_sigChannelBusy
par Scenario.node[16].nic typename "\"org.car2x.veins.modules.nic.Nic80211p\""
par Scenario.node[16].nic connectionManagerName "\"connectionManager\""
par Scenario.node[16].veinsmobility typename "\"org.car2x.veins.modules.mobility.traci.TraCIMobility\""
par Scenario.node[16].veinsmobility notAffectedByHostState true
par Scenario.node[16].veinsmobility x 0
par Scenario.node[16].veinsmobility y 0
par Scenario.node[16].veinsmobility z 1.895
par Scenario.node[16].veinsmobility xOrientation 1
par Scenario.node[16].veinsmobility yOrientation 0
par Scenario.node[16].veinsmobility zOrientation 0
par Scenario.node[16].veinsmobility hostPositionOffset 0m
attr unit m
par Scenario.node[16].veinsmobility setHostSpeed false
par Scenario.node[16].veinsmobility accidentCount 0
par Scenario.node[16].veinsmobility accidentStart 41.3721s
attr unit s
par Scenario.node[16].veinsmobility accidentDuration "uniform(30s, 60s)"
attr unit s
par Scenario.node[16].veinsmobility accidentInterval "uniform(30s, 60s)"
attr unit s
scalar Scenario.node[16].veinsmobility startTime 16.1
scalar Scenario.node[16].veinsmobility totalTime 47
scalar Scenario.node[16].veinsmobility stopTime 63.2
scalar Scenario.node[16].veinsmobility minSpeed 0.15445918055205
scalar Scenario.node[16].veinsmobility maxSpeed 15.125599964347
scalar Scenario.node[16].veinsmobility totalDistance 421.14247676577
scalar Scenario.node[16].veinsmobility totalCO2Emission 158.2138232798
par Scenario.node[16] typename "\"org.car2x.veins.nodes.Car\""
par Scenario.node[16] applType "\"TraCIDemo11p\""
par Scenario.node[16] nicType "\"Nic80211p\""
par Scenario.node[16] veinsmobilityType "\"org.car2x.veins.modules.mobility.traci.TraCIMobility\""
par Scenario.node[11].appl typename "\"org.car2x.veins.modules.application.traci.TraCIDemo11p\""
par Scenario.node[11].appl headerLength 80bit
attr unit bit
par Scenario.node[11].appl sendBeacons true
par Scenario.node[11].appl beaconLengthBits 256bit
attr unit bit
par Scenario.node[11].appl beaconUserPriority 7
par Scenario.node[11].appl beaconInterval 0.1s
attr unit s
par Scenario.node[11].appl dataLengthBits 1024bit
attr unit bit
par Scenario.node[11].appl dataOnSch false
par Scenario.node[11].appl dataUserPriority 7
par Scenario.node[11].appl avoidBeaconSynchronization true
par Scenario.node[11].appl sendWSA false
par Scenario.node[11].appl wsaLengthBits 250bit
attr unit bit
par Scenario.node[11].appl wsaInterval 1s
attr unit s
scalar Scenario.node[11].appl generatedWSMs 1
scalar Scenario.node[11].appl receivedWSMs 28
scalar Scenario.node[11].appl generatedBSMs 581
scalar Scenario.node[11].appl receivedBSMs 9286
scalar Scenario.node[11].appl generatedWSAs 0
scalar Scenario.node[11].appl receivedWSAs 0
par Scenario.node[11].nic.phy80211p typename "\"org.car2x.veins.modules.phy.PhyLayer80211p\""
par Scenario.node[11].nic.phy80211p recordStats false
par Scenario.node[11].nic.phy80211p usePropagationDelay true
par Scenario.node[11].nic.phy80211p noiseFloor -98dBm
attr unit dBm
par Scenario.node[11].nic.phy80211p useNoiseFloor true
par Scenario.node[11].nic.phy80211p antenna "<root>...</root> at content:1"
par Scenario.node[11].nic.phy80211p antennaOffsetX 0m
attr unit m
par Scenario.node[11].nic.phy80211p antennaOffsetY 0m
attr unit m
par Scenario.node[11].nic.phy80211p antennaOffsetZ 1.895m
attr unit m
par Scenario.node[11].nic.phy80211p antennaOffsetYaw 0rad
attr unit rad
par Scenario.node[11].nic.phy80211p analogueModels "<root>...</root> at /home/vagrant/spe-homework-project/Project/simulations//config_3.xml:2"
par Scenario.node[11].nic.phy80211p decider "<root>...</root> at /home/vagrant/spe-homework-project/Project/simulations//config_3.xml:2"
par Scenario.node[11].nic.phy80211p minPowerLevel -110dBm
attr unit dBm
par Scenario.node[11].nic.phy80211p timeRXToTX 0s
attr unit s
par Scenario.node[11].nic.phy80211p timeRXToSleep 0s
attr unit s
par Scenario.node[11].nic.phy80211p timeTXToRX 0s
attr unit s
par Scenario.node[11].nic.phy80211p timeTXToSleep 0s
attr unit s
par Scenario.node[11].nic.phy80211p timeSleepToRX 0s
attr unit s
par Scenario.node[11].nic.phy80211p timeSleepToTX 0s
attr unit s
par Scenario.node[11].nic.phy80211p initialRadioState 0
par Scenario.node[11].nic.phy80211p radioMinAtt 1
par Scenario.node[11].nic.phy80211p radioMaxAtt 0
par Scenario.node[11].nic.phy80211p nbRadioChannels 1
par Scenario.node[11].nic.phy80211p initialRadioChannel 0
par Scenario.node[11].nic.phy80211p ccaThreshold -65dBm
attr unit dBm
par Scenario.node[11].nic.phy80211p collectCollisionStatistics false
par Scenario.node[11].nic.phy80211p allowTxDuringRx false
scalar Scenario.node[11].nic.phy80211p busyTime 0.019345955249571
par Scenario.node[11].nic.mac1609_4 typename "\"org.car2x.veins.modules.mac.ieee80211p.Mac1609_4\""
par Scenario.node[11].nic.mac1609_4 notAffectedByHostState false
par Scenario.node[11].nic.mac1609_4 headerLength 0bit
attr unit bit
par Scenario.node[11].nic.mac1609_4 address "\"auto\""
par Scenario.node[11].nic.mac1609_4 useServiceChannel false
par Scenario.node[11].nic.mac1609_4 serviceChannel 1
par Scenario.node[11].nic.mac1609_4 bitrate 6000000bps
attr unit bps
par Scenario.node[11].nic.mac1609_4 syncOffset 0.0003s
attr unit s
par Scenario.node[11].nic.mac1609_4 txPower 20mW
attr unit mW
par Scenario.node[11].nic.mac1609_4 queueSize 0
par Scenario.node[11].nic.mac1609_4 dot11RTSThreshold 12000bit
attr unit bit
par Scenario.node[11].nic.mac1609_4 dot11ShortRetryLimit 7
par Scenario.node[11].nic.mac1609_4 dot11LongRetryLimit 4
par Scenario.node[11].nic.mac1609_4 ackLength 112bit
attr unit bit
par Scenario.node[11].nic.mac1609_4 useAcks false
par Scenario.node[11].nic.mac1609_4 frameErrorRate 0
par Scenario.node[11].nic.mac1609_4 ackErrorRate 0
scalar Scenario.node[11].nic.mac1609_4 ReceivedUnicastPackets 0
scalar Scenario.node[11].nic.mac1609_4 ReceivedBroadcasts 9314
scalar Scenario.node[11].nic.mac1609_4 SentPackets 582
scalar Scenario.node[11].nic.mac1609_4 SentAcknowledgements 0
scalar Scenario.node[11].nic.mac1609_4 RetriesExceeded 0
scalar Scenario.node[11].nic.mac1609_4 SNIRLostPackets 1458
scalar Scenario.node[11].nic.mac1609_4 RXTXLostPackets 1
scalar Scenario.node[11].nic.mac1609_4 TotalLostPackets 1459
scalar Scenario.node[11].nic.mac1609_4 DroppedPacketsInMac 0
scalar Scenario.node[11].nic.mac1609_4 TooLittleTime 0
scalar Scenario.node[11].nic.mac1609_4 TimesIntoBackoff 582
scalar Scenario.node[11].nic.mac1609_4 SlotsBackoff 847
scalar Scenario.node[11].nic.mac1609_4 NumInternalContention 0
scalar Scenario.node[11].nic.mac1609_4 totalBusyTime 1.158302
scalar Scenario.node[11].nic.mac1609_4 retriesExceeded:count 0
attr recordingmode count
attr source org_car2x_veins_modules_mac_sigRetriesExceeded
scalar Scenario.node[11].nic.mac1609_4 sentAcks:count 0
attr recordingmode count
attr source org_car2x_veins_modules_mac_sigSentAck
scalar Scenario.node[11].nic.mac1609_4 sentPackets:count 582
attr recordingmode count
attr source org_car2x_veins_modules_mac_sigSentPacket
scalar Scenario.node[11].nic.mac1609_4 collisions:count 0
attr recordingmode count
attr source org_car2x_veins_modules_mac_sigCollision
scalar Scenario.node[11].nic.mac1609_4 channelBusy:timeavg 0.019936351118763
attr recordingmode timeavg
attr source org_car2x_veins_modules_mac_sigChannelBusy
par Scenario.node[11].nic typename "\"org.car2x.veins.modules.nic.Nic80211p\""
par Scenario.node[11].nic connectionManagerName "\"connectionManager\""
par Scenario.node[11].veinsmobility typename "\"org.car2x.veins.modules.mobility.traci.TraCIMobility\""
par Scenario.node[11].veinsmobility notAffectedByHostState true
par Scenario.node[11].veinsmobility x 0
par Scenario.node[11].veinsmobility y 0
par Scenario.node[11].veinsmobility z 1.895
par Scenario.node[11].veinsmobility xOrientation 1
par Scenario.node[11].veinsmobility yOrientation 0
par Scenario.node[11].veinsmobility zOrientation 0
par Scenario.node[11].veinsmobility hostPositionOffset 0m
attr unit m
par Scenario.node[11].veinsmobility setHostSpeed false
par Scenario.node[11].veinsmobility accidentCount 0
par Scenario.node[11].veinsmobility accidentStart 46.3958s
attr unit s
par Scenario.node[11].veinsmobility accidentDuration "uniform(30s, 60s)"
attr unit s
par Scenario.node[11].veinsmobility accidentInterval "uniform(30s, 60s)"
attr unit s
scalar Scenario.node[11].veinsmobility startTime 11.8
scalar Scenario.node[11].veinsmobility totalTime 58
scalar Scenario.node[11].veinsmobility stopTime 69.9
scalar Scenario.node[11].veinsmobility minSpeed 0
scalar Scenario.node[11].veinsmobility maxSpeed 14.498979020016
scalar Scenario.node[11].veinsmobility totalDistance 422.47738289003
scalar Scenario.node[11].veinsmobility totalCO2Emission 161.74724043745
par Scenario.node[11] typename "\"org.car2x.veins.nodes.Car\""
par Scenario.node[11] applType "\"TraCIDemo11p\""
par Scenario.node[11] nicType "\"Nic80211p\""
par Scenario.node[11] veinsmobilityType "\"org.car2x.veins.modules.mobility.traci.TraCIMobility\""
par Scenario.node[41].appl typename "\"org.car2x.veins.modules.application.traci.TraCIDemo11p\""
par Scenario.node[41].appl headerLength 80bit
attr unit bit
par Scenario.node[41].appl sendBeacons true
par Scenario.node[41].appl beaconLengthBits 256bit
attr unit bit
par Scenario.node[41].appl beaconUserPriority 7
par Scenario.node[41].appl beaconInterval 0.1s
attr unit s
par Scenario.node[41].appl dataLengthBits 1024bit
attr unit bit
par Scenario.node[41].appl dataOnSch false
par Scenario.node[41].appl dataUserPriority 7
par Scenario.node[41].appl avoidBeaconSynchronization true
par Scenario.node[41].appl sendWSA false
par Scenario.node[41].appl wsaLengthBits 250bit
attr unit bit
par Scenario.node[41].appl wsaInterval 1s
attr unit s
scalar Scenario.node[41].appl generatedWSMs 1
scalar Scenario.node[41].appl receivedWSMs 7
scalar Scenario.node[41].appl generatedBSMs 262
scalar Scenario.node[41].appl receivedBSMs 3806
scalar Scenario.node[41].appl generatedWSAs 0
scalar Scenario.node[41].appl receivedWSAs 0
par Scenario.node[41].nic.phy80211p typename "\"org.car2x.veins.modules.phy.PhyLayer80211p\""
par Scenario.node[41].nic.phy80211p recordStats false
par Scenario.node[41].nic.phy80211p usePropagationDelay true
par Scenario.node[41].nic.phy80211p noiseFloor -98dBm
attr unit dBm
par Scenario.node[41].nic.phy80211p useNoiseFloor true
par Scenario.node[41].nic.phy80211p antenna "<root>...</root> at content:1"
par Scenario.node[41].nic.phy80211p antennaOffsetX 0m
attr unit m
par Scenario.node[41].nic.phy80211p antennaOffsetY 0m
attr unit m
par Scenario.node[41].nic.phy80211p antennaOffsetZ 1.895m
attr unit m
par Scenario.node[41].nic.phy80211p antennaOffsetYaw 0rad
attr unit rad
par Scenario.node[41].nic.phy80211p analogueModels "<root>...</root> at /home/vagrant/spe-homework-project/Project/simulations//config_3.xml:2"
par Scenario.node[41].nic.phy80211p decider "<root>...</root> at /home/vagrant/spe-homework-project/Project/simulations//config_3.xml:2"
par Scenario.node[41].nic.phy80211p minPowerLevel -110dBm
attr unit dBm
par Scenario.node[41].nic.phy80211p timeRXToTX 0s
attr unit s
par Scenario.node[41].nic.phy80211p timeRXToSleep 0s
attr unit s
par Scenario.node[41].nic.phy80211p timeTXToRX 0s
attr unit s
par Scenario.node[41].nic.phy80211p timeTXToSleep 0s
attr unit s
par Scenario.node[41].nic.phy80211p timeSleepToRX 0s
attr unit s
par Scenario.node[41].nic.phy80211p timeSleepToTX 0s
attr unit s
par Scenario.node[41].nic.phy80211p initialRadioState 0
par Scenario.node[41].nic.phy80211p radioMinAtt 1
par Scenario.node[41].nic.phy80211p radioMaxAtt 0
par Scenario.node[41].nic.phy80211p nbRadioChannels 1
par Scenario.node[41].nic.phy80211p initialRadioChannel 0
par Scenario.node[41].nic.phy80211p ccaThreshold -65dBm
attr unit dBm
par Scenario.node[41].nic.phy80211p collectCollisionStatistics false
par Scenario.node[41].nic.phy80211p allowTxDuringRx false
scalar Scenario.node[41].nic.phy80211p busyTime 0.017031450381679
par Scenario.node[41].nic.mac1609_4 typename "\"org.car2x.veins.modules.mac.ieee80211p.Mac1609_4\""
par Scenario.node[41].nic.mac1609_4 notAffectedByHostState false
par Scenario.node[41].nic.mac1609_4 headerLength 0bit
attr unit bit
par Scenario.node[41].nic.mac1609_4 address "\"auto\""
par Scenario.node[41].nic.mac1609_4 useServiceChannel false
par Scenario.node[41].nic.mac1609_4 serviceChannel 1
par Scenario.node[41].nic.mac1609_4 bitrate 6000000bps
attr unit bps
par Scenario.node[41].nic.mac1609_4 syncOffset 0.0003s
attr unit s
par Scenario.node[41].nic.mac1609_4 txPower 20mW
attr unit mW
par Scenario.node[41].nic.mac1609_4 queueSize 0
par Scenario.node[41].nic.mac1609_4 dot11RTSThreshold 12000bit
attr unit bit
par Scenario.node[41].nic.mac1609_4 dot11ShortRetryLimit 7
par Scenario.node[41].nic.mac1609_4 dot11LongRetryLimit 4
par Scenario.node[41].nic.mac1609_4 ackLength 112bit
attr unit bit
par Scenario.node[41].nic.mac1609_4 useAcks false
par Scenario.node[41].nic.mac1609_4 frameErrorRate 0
par Scenario.node[41].nic.mac1609_4 ackErrorRate 0
scalar Scenario.node[41].nic.mac1609_4 ReceivedUnicastPackets 0
scalar Scenario.node[41].nic.mac1609_4 ReceivedBroadcasts 3813
scalar Scenario.node[41].nic.mac1609_4 SentPackets 263
scalar Scenario.node[41].nic.mac1609_4 SentAcknowledgements 0
scalar Scenario.node[41].nic.mac1609_4 RetriesExceeded 0
scalar Scenario.node[41].nic.mac1609_4 SNIRLostPackets 469
scalar Scenario.node[41].nic.mac1609_4 RXTXLostPackets 0
scalar Scenario.node[41].nic.mac1609_4 TotalLostPackets 469
scalar Scenario.node[41].nic.mac1609_4 DroppedPacketsInMac 0
scalar Scenario.node[41].nic.mac1609_4 TooLittleTime 0
scalar Scenario.node[41].nic.mac1609_4 TimesIntoBackoff 264
scalar Scenario.node[41].nic.mac1609_4 SlotsBackoff 398
scalar Scenario.node[41].nic.mac1609_4 NumInternalContention 0
scalar Scenario.node[41].nic.mac1609_4 totalBusyTime 0.470119
scalar Scenario.node[41].nic.mac1609_4 retriesExceeded:count 0
attr recordingmode count
attr source org_car2x_veins_modules_mac_sigRetriesExceeded
scalar Scenario.node[41].nic.mac1609_4 sentAcks:count 0
attr recordingmode count
attr source org_car2x_veins_modules_mac_sigSentAck
scalar Scenario.node[41].nic.mac1609_4 sentPackets:count 263
attr recordingmode count
attr source org_car2x_veins_modules_mac_sigSentPacket
scalar Scenario.node[41].nic.mac1609_4 collisions:count 0
attr recordingmode count
attr source org_car2x_veins_modules_mac_sigCollision
scalar Scenario.node[41].nic.mac1609_4 channelBusy:timeavg 0.017943473282442
attr recordingmode timeavg
attr source org_car2x_veins_modules_mac_sigChannelBusy
par Scenario.node[41].nic typename "\"org.car2x.veins.modules.nic.Nic80211p\""
par Scenario.node[41].nic connectionManagerName "\"connectionManager\""
par Scenario.node[41].veinsmobility typename "\"org.car2x.veins.modules.mobility.traci.TraCIMobility\""
par Scenario.node[41].veinsmobility notAffectedByHostState true
par Scenario.node[41].veinsmobility x 0
par Scenario.node[41].veinsmobility y 0
par Scenario.node[41].veinsmobility z 1.895
par Scenario.node[41].veinsmobility xOrientation 1
par Scenario.node[41].veinsmobility yOrientation 0
par Scenario.node[41].veinsmobility zOrientation 0
par Scenario.node[41].veinsmobility hostPositionOffset 0m
attr unit m
par Scenario.node[41].veinsmobility setHostSpeed false
par Scenario.node[41].veinsmobility accidentCount 0
par Scenario.node[41].veinsmobility accidentStart 33.8537s
attr unit s
par Scenario.node[41].veinsmobility accidentDuration "uniform(30s, 60s)"
attr unit s
par Scenario.node[41].veinsmobility accidentInterval "uniform(30s, 60s)"
attr unit s
scalar Scenario.node[41].veinsmobility startTime 44.1
scalar Scenario.node[41].veinsmobility totalTime 26.1
scalar Scenario.node[41].veinsmobility stopTime 70.3
scalar Scenario.node[41].veinsmobility minSpeed 0.24909573089657
scalar Scenario.node[41].veinsmobility maxSpeed 13.733794691218
scalar Scenario.node[41].veinsmobility totalDistance 280.60325685206
scalar Scenario.node[41].veinsmobility totalCO2Emission 89.758248361038
par Scenario.node[41] typename "\"org.car2x.veins.nodes.Car\""
par Scenario.node[41] applType "\"TraCIDemo11p\""
par Scenario.node[41] nicType "\"Nic80211p\""
par Scenario.node[41] veinsmobilityType "\"org.car2x.veins.modules.mobility.traci.TraCIMobility\""
par Scenario.node[47].appl typename "\"org.car2x.veins.modules.application.traci.TraCIDemo11p\""
par Scenario.node[47].appl headerLength 80bit
attr unit bit
par Scenario.node[47].appl sendBeacons true
par Scenario.node[47].appl beaconLengthBits 256bit
attr unit bit
par Scenario.node[47].appl beaconUserPriority 7
par Scenario.node[47].appl beaconInterval 0.1s
attr unit s
par Scenario.node[47].appl dataLengthBits 1024bit
attr unit bit
par Scenario.node[47].appl dataOnSch false
par Scenario.node[47].appl dataUserPriority 7
par Scenario.node[47].appl avoidBeaconSynchronization true
par Scenario.node[47].appl sendWSA false
par Scenario.node[47].appl wsaLengthBits 250bit
attr unit bit
par Scenario.node[47].appl wsaInterval 1s
attr unit s
scalar Scenario.node[47].appl generatedWSMs 1
scalar Scenario.node[47].appl receivedWSMs 9
scalar Scenario.node[47].appl generatedBSMs 241
scalar Scenario.node[47].appl receivedBSMs 3578
scalar Scenario.node[47].appl generatedWSAs 0
scalar Scenario.node[47].appl receivedWSAs 0
par Scenario.node[47].nic.phy80211p typename "\"org.car2x.veins.modules.phy.PhyLayer80211p\""
par Scenario.node[47].nic.phy80211p recordStats false
par Scenario.node[47].nic.phy80211p usePropagationDelay true
par Scenario.node[47].nic.phy80211p noiseFloor -98dBm
attr unit dBm
par Scenario.node[47].nic.phy80211p useNoiseFloor true
par Scenario.node[47].nic.phy80211p antenna "<root>...</root> at content:1"
par Scenario.node[47].nic.phy80211p antennaOffsetX 0m
attr unit m
par Scenario.node[47].nic.phy80211p antennaOffsetY 0m
attr unit m
par Scenario.node[47].nic.phy80211p antennaOffsetZ 1.895m
attr unit m
par Scenario.node[47].nic.phy80211p antennaOffsetYaw 0rad
attr unit rad
par Scenario.node[47].nic.phy80211p analogueModels "<root>...</root> at /home/vagrant/spe-homework-project/Project/simulations//config_3.xml:2"
par Scenario.node[47].nic.phy80211p decider "<root>...</root> at /home/vagrant/spe-homework-project/Project/simulations//config_3.xml:2"
par Scenario.node[47].nic.phy80211p minPowerLevel -110dBm
attr unit dBm
par Scenario.node[47].nic.phy80211p timeRXToTX 0s
attr unit s
par Scenario.node[47].nic.phy80211p timeRXToSleep 0s
attr unit s
par Scenario.node[47].nic.phy80211p timeTXToRX 0s
attr unit s
par Scenario.node[47].nic.phy80211p timeTXToSleep 0s
attr unit s
par Scenario.node[47].nic.phy80211p timeSleepToRX 0s
attr unit s
par Scenario.node[47].nic.phy80211p timeSleepToTX 0s
attr unit s
par Scenario.node[47].nic.phy80211p initialRadioState 0
par Scenario.node[47].nic.phy80211p radioMinAtt 1
par Scenario.node[47].nic.phy80211p radioMaxAtt 0
par Scenario.node[47].nic.phy80211p nbRadioChannels 1
par Scenario.node[47].nic.phy80211p initialRadioChannel 0
par Scenario.node[47].nic.phy80211p ccaThreshold -65dBm
attr unit dBm
par Scenario.node[47].nic.phy80211p collectCollisionStatistics false
par Scenario.node[47].nic.phy80211p allowTxDuringRx false
scalar Scenario.node[47].nic.phy80211p busyTime 0.018012614107883
par Scenario.node[47].nic.mac1609_4 typename "\"org.car2x.veins.modules.mac.ieee80211p.Mac1609_4\""
par Scenario.node[47].nic.mac1609_4 notAffectedByHostState false
par Scenario.node[47].nic.mac1609_4 headerLength 0bit
attr unit bit
par Scenario.node[47].nic.mac1609_4 address "\"auto\""
par Scenario.node[47].nic.mac1609_4 useServiceChannel false
par Scenario.node[47].nic.mac1609_4 serviceChannel 1
par Scenario.node[47].nic.mac1609_4 bitrate 6000000bps
attr unit bps
par Scenario.node[47].nic.mac1609_4 syncOffset 0.0003s
attr unit s
par Scenario.node[47].nic.mac1609_4 txPower 20mW
attr unit mW
par Scenario.node[47].nic.mac1609_4 queueSize 0
par Scenario.node[47].nic.mac1609_4 dot11RTSThreshold 12000bit
attr unit bit
par Scenario.node[47].nic.mac1609_4 dot11ShortRetryLimit 7
par Scenario.node[47].nic.mac1609_4 dot11LongRetryLimit 4
par Scenario.node[47].nic.mac1609_4 ackLength 112bit
attr unit bit
par Scenario.node[47].nic.mac1609_4 useAcks false
par Scenario.node[47].nic.mac1609_4 frameErrorRate 0
par Scenario.node[47].nic.mac1609_4 ackErrorRate 0
scalar Scenario.node[47].nic.mac1609_4 ReceivedUnicastPackets 0
scalar Scenario.node[47].nic.mac1609_4 ReceivedBroadcasts 3587
scalar Scenario.node[47].nic.mac1609_4 SentPackets 242
scalar Scenario.node[47].nic.mac1609_4 SentAcknowledgements 0
scalar Scenario.node[47].nic.mac1609_4 RetriesExceeded 0
scalar Scenario.node[47].nic.mac1609_4 SNIRLostPackets 576
scalar Scenario.node[47].nic.mac1609_4 RXTXLostPackets 0
scalar Scenario.node[47].nic.mac1609_4 TotalLostPackets 576
scalar Scenario.node[47].nic.mac1609_4 DroppedPacketsInMac 0
scalar Scenario.node[47].nic.mac1609_4 TooLittleTime 0
scalar Scenario.node[47].nic.mac1609_4 TimesIntoBackoff 242
scalar Scenario.node[47].nic.mac1609_4 SlotsBackoff 369
scalar Scenario.node[47].nic.mac1609_4 NumInternalContention 0
scalar Scenario.node[47].nic.mac1609_4 totalBusyTime 0.457146
scalar Scenario.node[47].nic.mac1609_4 retriesExceeded:count 0
attr recordingmode count
attr source org_car2x_veins_modules_mac_sigRetriesExceeded
scalar Scenario.node[47].nic.mac1609_4 sentAcks:count 0
attr recordingmode count
attr source org_car2x_veins_modules_mac_sigSentAck
scalar Scenario.node[47].nic.mac1609_4 sentPackets:count 242
attr recordingmode count
attr source org_car2x_veins_modules_mac_sigSentPacket
scalar Scenario.node[47].nic.mac1609_4 collisions:count 0
attr recordingmode count
attr source org_car2x_veins_modules_mac_sigCollision
[...]
par Scenario.node[93].nic.phy80211p decider "<root>...</root> at /home/vagrant/spe-homework-project/Project/simulations//config_3.xml:2"
par Scenario.node[93].nic.phy80211p minPowerLevel -110dBm
attr unit dBm
par Scenario.node[93].nic.phy80211p timeRXToTX 0s
attr unit s
par Scenario.node[93].nic.phy80211p timeRXToSleep 0s
attr unit s
par Scenario.node[93].nic.phy80211p timeTXToRX 0s
attr unit s
par Scenario.node[93].nic.phy80211p timeTXToSleep 0s
attr unit s
par Scenario.node[93].nic.phy80211p timeSleepToRX 0s
attr unit s
par Scenario.node[93].nic.phy80211p timeSleepToTX 0s
attr unit s
par Scenario.node[93].nic.phy80211p initialRadioState 0
par Scenario.node[93].nic.phy80211p radioMinAtt 1
par Scenario.node[93].nic.phy80211p radioMaxAtt 0
par Scenario.node[93].nic.phy80211p nbRadioChannels 1
par Scenario.node[93].nic.phy80211p initialRadioChannel 0
par Scenario.node[93].nic.phy80211p ccaThreshold -65dBm
attr unit dBm
par Scenario.node[93].nic.phy80211p collectCollisionStatistics false
par Scenario.node[93].nic.phy80211p allowTxDuringRx false
scalar Scenario.node[93].nic.phy80211p busyTime 0.03068
par Scenario.node[93].nic.mac1609_4 typename "\"org.car2x.veins.modules.mac.ieee80211p.Mac1609_4\""
par Scenario.node[93].nic.mac1609_4 notAffectedByHostState false
par Scenario.node[93].nic.mac1609_4 headerLength 0bit
attr unit bit
par Scenario.node[93].nic.mac1609_4 address "\"auto\""
par Scenario.node[93].nic.mac1609_4 useServiceChannel false
par Scenario.node[93].nic.mac1609_4 serviceChannel 1
par Scenario.node[93].nic.mac1609_4 bitrate 6000000bps
attr unit bps
par Scenario.node[93].nic.mac1609_4 syncOffset 0.0003s
attr unit s
par Scenario.node[93].nic.mac1609_4 txPower 20mW
attr unit mW
par Scenario.node[93].nic.mac1609_4 queueSize 0
par Scenario.node[93].nic.mac1609_4 dot11RTSThreshold 12000bit
attr unit bit
par Scenario.node[93].nic.mac1609_4 dot11ShortRetryLimit 7
par Scenario.node[93].nic.mac1609_4 dot11LongRetryLimit 4
par Scenario.node[93].nic.mac1609_4 ackLength 112bit
attr unit bit
par Scenario.node[93].nic.mac1609_4 useAcks false
par Scenario.node[93].nic.mac1609_4 frameErrorRate 0
par Scenario.node[93].nic.mac1609_4 ackErrorRate 0
scalar Scenario.node[93].nic.mac1609_4 ReceivedUnicastPackets 0
scalar Scenario.node[93].nic.mac1609_4 ReceivedBroadcasts 373
scalar Scenario.node[93].nic.mac1609_4 SentPackets 14
scalar Scenario.node[93].nic.mac1609_4 SentAcknowledgements 0
scalar Scenario.node[93].nic.mac1609_4 RetriesExceeded 0
scalar Scenario.node[93].nic.mac1609_4 SNIRLostPackets 40
scalar Scenario.node[93].nic.mac1609_4 RXTXLostPackets 0
scalar Scenario.node[93].nic.mac1609_4 TotalLostPackets 40
scalar Scenario.node[93].nic.mac1609_4 DroppedPacketsInMac 0
scalar Scenario.node[93].nic.mac1609_4 TooLittleTime 0
scalar Scenario.node[93].nic.mac1609_4 TimesIntoBackoff 14
scalar Scenario.node[93].nic.mac1609_4 SlotsBackoff 16
scalar Scenario.node[93].nic.mac1609_4 NumInternalContention 0
scalar Scenario.node[93].nic.mac1609_4 totalBusyTime 0.042966
scalar Scenario.node[93].nic.mac1609_4 retriesExceeded:count 0
attr recordingmode count
attr source org_car2x_veins_modules_mac_sigRetriesExceeded
scalar Scenario.node[93].nic.mac1609_4 sentAcks:count 0
attr recordingmode count
attr source org_car2x_veins_modules_mac_sigSentAck
scalar Scenario.node[93].nic.mac1609_4 sentPackets:count 14
attr recordingmode count
attr source org_car2x_veins_modules_mac_sigSentPacket
scalar Scenario.node[93].nic.mac1609_4 collisions:count 0
attr recordingmode count
attr source org_car2x_veins_modules_mac_sigCollision
scalar Scenario.node[93].nic.mac1609_4 channelBusy:timeavg 0.03069
attr recordingmode timeavg
attr source org_car2x_veins_modules_mac_sigChannelBusy
par Scenario.node[93].nic typename "\"org.car2x.veins.modules.nic.Nic80211p\""
par Scenario.node[93].nic connectionManagerName "\"connectionManager\""
par Scenario.node[93].veinsmobility typename "\"org.car2x.veins.modules.mobility.traci.TraCIMobility\""
par Scenario.node[93].veinsmobility notAffectedByHostState true
par Scenario.node[93].veinsmobility x 0
par Scenario.node[93].veinsmobility y 0
par Scenario.node[93].veinsmobility z 1.895
par Scenario.node[93].veinsmobility xOrientation 1
par Scenario.node[93].veinsmobility yOrientation 0
par Scenario.node[93].veinsmobility zOrientation 0
par Scenario.node[93].veinsmobility hostPositionOffset 0m
attr unit m
par Scenario.node[93].veinsmobility setHostSpeed false
par Scenario.node[93].veinsmobility accidentCount 0
par Scenario.node[93].veinsmobility accidentStart 50.5911s
attr unit s
par Scenario.node[93].veinsmobility accidentDuration "uniform(30s, 60s)"
attr unit s
par Scenario.node[93].veinsmobility accidentInterval "uniform(30s, 60s)"
attr unit s
scalar Scenario.node[93].veinsmobility startTime 98.6
scalar Scenario.node[93].veinsmobility totalTime 1.4
scalar Scenario.node[93].veinsmobility stopTime 100
scalar Scenario.node[93].veinsmobility minSpeed 0.25448933255859
scalar Scenario.node[93].veinsmobility maxSpeed 3.0192892383689
scalar Scenario.node[93].veinsmobility totalDistance 2.4009685680991
scalar Scenario.node[93].veinsmobility totalCO2Emission 2.7224661870463
par Scenario.node[93] typename "\"org.car2x.veins.nodes.Car\""
par Scenario.node[93] applType "\"TraCIDemo11p\""
par Scenario.node[93] nicType "\"Nic80211p\""
par Scenario.node[93] veinsmobilityType "\"org.car2x.veins.modules.mobility.traci.TraCIMobility\""
par Scenario.node[94].appl typename "\"org.car2x.veins.modules.application.traci.TraCIDemo11p\""
par Scenario.node[94].appl headerLength 80bit
attr unit bit
par Scenario.node[94].appl sendBeacons true
par Scenario.node[94].appl beaconLengthBits 256bit
attr unit bit
par Scenario.node[94].appl beaconUserPriority 7
par Scenario.node[94].appl beaconInterval 0.1s
attr unit s
par Scenario.node[94].appl dataLengthBits 1024bit
attr unit bit
par Scenario.node[94].appl dataOnSch false
par Scenario.node[94].appl dataUserPriority 7
par Scenario.node[94].appl avoidBeaconSynchronization true
par Scenario.node[94].appl sendWSA false
par Scenario.node[94].appl wsaLengthBits 250bit
attr unit bit
par Scenario.node[94].appl wsaInterval 1s
attr unit s
scalar Scenario.node[94].appl generatedWSMs 0
scalar Scenario.node[94].appl receivedWSMs 0
scalar Scenario.node[94].appl generatedBSMs 9
scalar Scenario.node[94].appl receivedBSMs 193
scalar Scenario.node[94].appl generatedWSAs 0
scalar Scenario.node[94].appl receivedWSAs 0
par Scenario.node[94].nic.phy80211p typename "\"org.car2x.veins.modules.phy.PhyLayer80211p\""
par Scenario.node[94].nic.phy80211p recordStats false
par Scenario.node[94].nic.phy80211p usePropagationDelay true
par Scenario.node[94].nic.phy80211p noiseFloor -98dBm
attr unit dBm
par Scenario.node[94].nic.phy80211p useNoiseFloor true
par Scenario.node[94].nic.phy80211p antenna "<root>...</root> at content:1"
par Scenario.node[94].nic.phy80211p antennaOffsetX 0m
attr unit m
par Scenario.node[94].nic.phy80211p antennaOffsetY 0m
attr unit m
par Scenario.node[94].nic.phy80211p antennaOffsetZ 1.895m
attr unit m
par Scenario.node[94].nic.phy80211p antennaOffsetYaw 0rad
attr unit rad
par Scenario.node[94].nic.phy80211p analogueModels "<root>...</root> at /home/vagrant/spe-homework-project/Project/simulations//config_3.xml:2"
par Scenario.node[94].nic.phy80211p decider "<root>...</root> at /home/vagrant/spe-homework-project/Project/simulations//config_3.xml:2"
par Scenario.node[94].nic.phy80211p minPowerLevel -110dBm
attr unit dBm
par Scenario.node[94].nic.phy80211p timeRXToTX 0s
attr unit s
par Scenario.node[94].nic.phy80211p timeRXToSleep 0s
attr unit s
par Scenario.node[94].nic.phy80211p timeTXToRX 0s
attr unit s
par Scenario.node[94].nic.phy80211p timeTXToSleep 0s
attr unit s
par Scenario.node[94].nic.phy80211p timeSleepToRX 0s
attr unit s
par Scenario.node[94].nic.phy80211p timeSleepToTX 0s
attr unit s
par Scenario.node[94].nic.phy80211p initialRadioState 0
par Scenario.node[94].nic.phy80211p radioMinAtt 1
par Scenario.node[94].nic.phy80211p radioMaxAtt 0
par Scenario.node[94].nic.phy80211p nbRadioChannels 1
par Scenario.node[94].nic.phy80211p initialRadioChannel 0
par Scenario.node[94].nic.phy80211p ccaThreshold -65dBm
attr unit dBm
par Scenario.node[94].nic.phy80211p collectCollisionStatistics false
par Scenario.node[94].nic.phy80211p allowTxDuringRx false
scalar Scenario.node[94].nic.phy80211p busyTime 0.024728888888889
par Scenario.node[94].nic.mac1609_4 typename "\"org.car2x.veins.modules.mac.ieee80211p.Mac1609_4\""
par Scenario.node[94].nic.mac1609_4 notAffectedByHostState false
par Scenario.node[94].nic.mac1609_4 headerLength 0bit
attr unit bit
par Scenario.node[94].nic.mac1609_4 address "\"auto\""
par Scenario.node[94].nic.mac1609_4 useServiceChannel false
par Scenario.node[94].nic.mac1609_4 serviceChannel 1
par Scenario.node[94].nic.mac1609_4 bitrate 6000000bps
attr unit bps
par Scenario.node[94].nic.mac1609_4 syncOffset 0.0003s
attr unit s
par Scenario.node[94].nic.mac1609_4 txPower 20mW
attr unit mW
par Scenario.node[94].nic.mac1609_4 queueSize 0
par Scenario.node[94].nic.mac1609_4 dot11RTSThreshold 12000bit
attr unit bit
par Scenario.node[94].nic.mac1609_4 dot11ShortRetryLimit 7
par Scenario.node[94].nic.mac1609_4 dot11LongRetryLimit 4
par Scenario.node[94].nic.mac1609_4 ackLength 112bit
attr unit bit
par Scenario.node[94].nic.mac1609_4 useAcks false
par Scenario.node[94].nic.mac1609_4 frameErrorRate 0
par Scenario.node[94].nic.mac1609_4 ackErrorRate 0
scalar Scenario.node[94].nic.mac1609_4 ReceivedUnicastPackets 0
scalar Scenario.node[94].nic.mac1609_4 ReceivedBroadcasts 193
scalar Scenario.node[94].nic.mac1609_4 SentPackets 9
scalar Scenario.node[94].nic.mac1609_4 SentAcknowledgements 0
scalar Scenario.node[94].nic.mac1609_4 RetriesExceeded 0
scalar Scenario.node[94].nic.mac1609_4 SNIRLostPackets 21
scalar Scenario.node[94].nic.mac1609_4 RXTXLostPackets 0
scalar Scenario.node[94].nic.mac1609_4 TotalLostPackets 21
scalar Scenario.node[94].nic.mac1609_4 DroppedPacketsInMac 0
scalar Scenario.node[94].nic.mac1609_4 TooLittleTime 0
scalar Scenario.node[94].nic.mac1609_4 TimesIntoBackoff 9
scalar Scenario.node[94].nic.mac1609_4 SlotsBackoff 10
scalar Scenario.node[94].nic.mac1609_4 NumInternalContention 0
scalar Scenario.node[94].nic.mac1609_4 totalBusyTime 0.022265
scalar Scenario.node[94].nic.mac1609_4 retriesExceeded:count 0
attr recordingmode count
attr source org_car2x_veins_modules_mac_sigRetriesExceeded
scalar Scenario.node[94].nic.mac1609_4 sentAcks:count 0
attr recordingmode count
attr source org_car2x_veins_modules_mac_sigSentAck
scalar Scenario.node[94].nic.mac1609_4 sentPackets:count 9
attr recordingmode count
attr source org_car2x_veins_modules_mac_sigSentPacket
scalar Scenario.node[94].nic.mac1609_4 collisions:count 0
attr recordingmode count
attr source org_car2x_veins_modules_mac_sigCollision
scalar Scenario.node[94].nic.mac1609_4 channelBusy:timeavg 0.024738888888889
attr recordingmode timeavg
attr source org_car2x_veins_modules_mac_sigChannelBusy
par Scenario.node[94].nic typename "\"org.car2x.veins.modules.nic.Nic80211p\""
par Scenario.node[94].nic connectionManagerName "\"connectionManager\""
par Scenario.node[94].veinsmobility typename "\"org.car2x.veins.modules.mobility.traci.TraCIMobility\""
par Scenario.node[94].veinsmobility notAffectedByHostState true
par Scenario.node[94].veinsmobility x 0
par Scenario.node[94].veinsmobility y 0
par Scenario.node[94].veinsmobility z 1.895
par Scenario.node[94].veinsmobility xOrientation 1
par Scenario.node[94].veinsmobility yOrientation 0
par Scenario.node[94].veinsmobility zOrientation 0
par Scenario.node[94].veinsmobility hostPositionOffset 0m
attr unit m
par Scenario.node[94].veinsmobility setHostSpeed false
par Scenario.node[94].veinsmobility accidentCount 0
par Scenario.node[94].veinsmobility accidentStart 39.2616s
attr unit s
par Scenario.node[94].veinsmobility accidentDuration "uniform(30s, 60s)"
attr unit s
par Scenario.node[94].veinsmobility accidentInterval "uniform(30s, 60s)"
attr unit s
scalar Scenario.node[94].veinsmobility startTime 99.1
scalar Scenario.node[94].veinsmobility totalTime 0.9
scalar Scenario.node[94].veinsmobility stopTime 100
scalar Scenario.node[94].veinsmobility minSpeed 0.24755717902747
scalar Scenario.node[94].veinsmobility maxSpeed 2.0770114281352
scalar Scenario.node[94].veinsmobility totalDistance 1.0634787797402
scalar Scenario.node[94].veinsmobility totalCO2Emission 1.5015751661959
par Scenario.node[94] typename "\"org.car2x.veins.nodes.Car\""
par Scenario.node[94] applType "\"TraCIDemo11p\""
par Scenario.node[94] nicType "\"Nic80211p\""
par Scenario.node[94] veinsmobilityType "\"org.car2x.veins.modules.mobility.traci.TraCIMobility\""
par Scenario.node[95].appl typename "\"org.car2x.veins.modules.application.traci.TraCIDemo11p\""
par Scenario.node[95].appl headerLength 80bit
attr unit bit
par Scenario.node[95].appl sendBeacons true
par Scenario.node[95].appl beaconLengthBits 256bit
attr unit bit
par Scenario.node[95].appl beaconUserPriority 7
par Scenario.node[95].appl beaconInterval 0.1s
attr unit s
par Scenario.node[95].appl dataLengthBits 1024bit
attr unit bit
par Scenario.node[95].appl dataOnSch false
par Scenario.node[95].appl dataUserPriority 7
par Scenario.node[95].appl avoidBeaconSynchronization true
par Scenario.node[95].appl sendWSA false
par Scenario.node[95].appl wsaLengthBits 250bit
attr unit bit
par Scenario.node[95].appl wsaInterval 1s
attr unit s
scalar Scenario.node[95].appl generatedWSMs 0
scalar Scenario.node[95].appl receivedWSMs 0
scalar Scenario.node[95].appl generatedBSMs 0
scalar Scenario.node[95].appl receivedBSMs 0
scalar Scenario.node[95].appl generatedWSAs 0
scalar Scenario.node[95].appl receivedWSAs 0
par Scenario.node[95].nic.phy80211p typename "\"org.car2x.veins.modules.phy.PhyLayer80211p\""
par Scenario.node[95].nic.phy80211p recordStats false
par Scenario.node[95].nic.phy80211p usePropagationDelay true
par Scenario.node[95].nic.phy80211p noiseFloor -98dBm
attr unit dBm
par Scenario.node[95].nic.phy80211p useNoiseFloor true
par Scenario.node[95].nic.phy80211p antenna "<root>...</root> at content:1"
par Scenario.node[95].nic.phy80211p antennaOffsetX 0m
attr unit m
par Scenario.node[95].nic.phy80211p antennaOffsetY 0m
attr unit m
par Scenario.node[95].nic.phy80211p antennaOffsetZ 1.895m
attr unit m
par Scenario.node[95].nic.phy80211p antennaOffsetYaw 0rad
attr unit rad
par Scenario.node[95].nic.phy80211p analogueModels "<root>...</root> at /home/vagrant/spe-homework-project/Project/simulations//config_3.xml:2"
par Scenario.node[95].nic.phy80211p decider "<root>...</root> at /home/vagrant/spe-homework-project/Project/simulations//config_3.xml:2"
par Scenario.node[95].nic.phy80211p minPowerLevel -110dBm
attr unit dBm
par Scenario.node[95].nic.phy80211p timeRXToTX 0s
attr unit s
par Scenario.node[95].nic.phy80211p timeRXToSleep 0s
attr unit s
par Scenario.node[95].nic.phy80211p timeTXToRX 0s
attr unit s
par Scenario.node[95].nic.phy80211p timeTXToSleep 0s
attr unit s
par Scenario.node[95].nic.phy80211p timeSleepToRX 0s
attr unit s
par Scenario.node[95].nic.phy80211p timeSleepToTX 0s
attr unit s
par Scenario.node[95].nic.phy80211p initialRadioState 0
par Scenario.node[95].nic.phy80211p radioMinAtt 1
par Scenario.node[95].nic.phy80211p radioMaxAtt 0
par Scenario.node[95].nic.phy80211p nbRadioChannels 1
par Scenario.node[95].nic.phy80211p initialRadioChannel 0
par Scenario.node[95].nic.phy80211p ccaThreshold -65dBm
attr unit dBm
par Scenario.node[95].nic.phy80211p collectCollisionStatistics false
par Scenario.node[95].nic.phy80211p allowTxDuringRx false
scalar Scenario.node[95].nic.phy80211p busyTime -nan
par Scenario.node[95].nic.mac1609_4 typename "\"org.car2x.veins.modules.mac.ieee80211p.Mac1609_4\""
par Scenario.node[95].nic.mac1609_4 notAffectedByHostState false
par Scenario.node[95].nic.mac1609_4 headerLength 0bit
attr unit bit
par Scenario.node[95].nic.mac1609_4 address "\"auto\""
par Scenario.node[95].nic.mac1609_4 useServiceChannel false
par Scenario.node[95].nic.mac1609_4 serviceChannel 1
par Scenario.node[95].nic.mac1609_4 bitrate 6000000bps
attr unit bps
par Scenario.node[95].nic.mac1609_4 syncOffset 0.0003s
attr unit s
par Scenario.node[95].nic.mac1609_4 txPower 20mW
attr unit mW
par Scenario.node[95].nic.mac1609_4 queueSize 0
par Scenario.node[95].nic.mac1609_4 dot11RTSThreshold 12000bit
attr unit bit
par Scenario.node[95].nic.mac1609_4 dot11ShortRetryLimit 7
par Scenario.node[95].nic.mac1609_4 dot11LongRetryLimit 4
par Scenario.node[95].nic.mac1609_4 ackLength 112bit
attr unit bit
par Scenario.node[95].nic.mac1609_4 useAcks false
par Scenario.node[95].nic.mac1609_4 frameErrorRate 0
par Scenario.node[95].nic.mac1609_4 ackErrorRate 0
scalar Scenario.node[95].nic.mac1609_4 ReceivedUnicastPackets 0
scalar Scenario.node[95].nic.mac1609_4 ReceivedBroadcasts 0
scalar Scenario.node[95].nic.mac1609_4 SentPackets 0
scalar Scenario.node[95].nic.mac1609_4 SentAcknowledgements 0
scalar Scenario.node[95].nic.mac1609_4 RetriesExceeded 0
scalar Scenario.node[95].nic.mac1609_4 SNIRLostPackets 0
scalar Scenario.node[95].nic.mac1609_4 RXTXLostPackets 0
scalar Scenario.node[95].nic.mac1609_4 TotalLostPackets 0
scalar Scenario.node[95].nic.mac1609_4 DroppedPacketsInMac 0
scalar Scenario.node[95].nic.mac1609_4 TooLittleTime 0
scalar Scenario.node[95].nic.mac1609_4 TimesIntoBackoff 0
scalar Scenario.node[95].nic.mac1609_4 SlotsBackoff 0
scalar Scenario.node[95].nic.mac1609_4 NumInternalContention 0
scalar Scenario.node[95].nic.mac1609_4 totalBusyTime 0
scalar Scenario.node[95].nic.mac1609_4 retriesExceeded:count 0
attr recordingmode count
attr source org_car2x_veins_modules_mac_sigRetriesExceeded
scalar Scenario.node[95].nic.mac1609_4 sentAcks:count 0
attr recordingmode count
attr source org_car2x_veins_modules_mac_sigSentAck
scalar Scenario.node[95].nic.mac1609_4 sentPackets:count 0
attr recordingmode count
attr source org_car2x_veins_modules_mac_sigSentPacket
scalar Scenario.node[95].nic.mac1609_4 collisions:count 0
attr recordingmode count
attr source org_car2x_veins_modules_mac_sigCollision
scalar Scenario.node[95].nic.mac1609_4 channelBusy:timeavg -nan
attr recordingmode timeavg
attr source org_car2x_veins_modules_mac_sigChannelBusy
par Scenario.node[95].nic typename "\"org.car2x.veins.modules.nic.Nic80211p\""
par Scenario.node[95].nic connectionManagerName "\"connectionManager\""
par Scenario.node[95].veinsmobility typename "\"org.car2x.veins.modules.mobility.traci.TraCIMobility\""
par Scenario.node[95].veinsmobility notAffectedByHostState true
par Scenario.node[95].veinsmobility x 0
par Scenario.node[95].veinsmobility y 0
par Scenario.node[95].veinsmobility z 1.895
par Scenario.node[95].veinsmobility xOrientation 1
par Scenario.node[95].veinsmobility yOrientation 0
par Scenario.node[95].veinsmobility zOrientation 0
par Scenario.node[95].veinsmobility hostPositionOffset 0m
attr unit m
par Scenario.node[95].veinsmobility setHostSpeed false
par Scenario.node[95].veinsmobility accidentCount 0
par Scenario.node[95].veinsmobility accidentStart 51.3057s
attr unit s
par Scenario.node[95].veinsmobility accidentDuration "uniform(30s, 60s)"
attr unit s
par Scenario.node[95].veinsmobility accidentInterval "uniform(30s, 60s)"
attr unit s
scalar Scenario.node[95].veinsmobility startTime 100
scalar Scenario.node[95].veinsmobility totalTime 0
scalar Scenario.node[95].veinsmobility stopTime 100
scalar Scenario.node[95].veinsmobility totalDistance 0
scalar Scenario.node[95].veinsmobility totalCO2Emission 0
par Scenario.node[95] typename "\"org.car2x.veins.nodes.Car\""
par Scenario.node[95] applType "\"TraCIDemo11p\""
par Scenario.node[95] nicType "\"Nic80211p\""
par Scenario.node[95] veinsmobilityType "\"org.car2x.veins.modules.mobility.traci.TraCIMobility\""
par Scenario typename "\"org.car2x.veins.nodes.Scenario\""
par Scenario playgroundSizeX 600m
attr unit m
par Scenario playgroundSizeY 600m
attr unit m
par Scenario playgroundSizeZ 50m
attr unit m

