version 3
run Scenario3-7-20260625-11:55:38-4336
attr configname Scenario3
attr datetime 20260625-11:55:38
attr datetimef 20260625-115538
attr experiment Scenario3
attr inifile omnetpp.ini
attr iterationvars ""
attr iterationvarsd ""
attr iterationvarsf ""
attr measurement ""
attr network org.car2x.veins.nodes.Scenario
attr processid 4336
attr repetition 7
attr replication #7
attr resultdir results
attr runnumber 7
attr seedset 7
config image-path ../../../veins/images
config description "Obstacle Shadowing (Buildings block signals)"
config *.annotations.draw true
config *.obstacles.obstacles "xmldoc(\"config_3.xml\", \"//AnalogueModel[@type='SimpleObstacleShadowing']/obstacles\")"
config *.**.nic.phy80211p.decider "xmldoc(\"config_3.xml\")"
config *.**.nic.phy80211p.analogueModels "xmldoc(\"config_3.xml\")"
config repeat 10
config seed-set 7
config network org.car2x.veins.nodes.Scenario
config sim-time-limit 100s
config *.playgroundSizeX 600m
config *.playgroundSizeY 600m
config *.playgroundSizeZ 50m
config *.manager.updateInterval 0.1s
config *.manager.host "\"localhost\""
config *.manager.port 9999
config *.manager.autoShutdown true
config *.manager.launchConfig "xmldoc(\"simulation.launchd.xml\")"
config *.node[*].veinsmobility.x 0
config *.node[*].veinsmobility.y 0
config *.node[*].veinsmobility.z 1.895
config *.node[*].applType "\"TraCIDemo11p\""
config *.node[*].appl.headerLength "80 bit"
config *.node[*].appl.sendBeacons true
config *.node[*].appl.dataOnSch false
config *.node[*].appl.beaconInterval 0.1s
config *.connectionManager.sendDirect true
config *.connectionManager.maxInterfDist 500m
config *.connectionManager.drawMaxIntfDist false
config *.**.nic.mac1609_4.useServiceChannel false
config *.**.nic.mac1609_4.txPower 20mW
config *.**.nic.mac1609_4.bitrate 6Mbps
config *.**.nic.phy80211p.minPowerLevel -110dBm
config *.**.nic.phy80211p.useNoiseFloor true
config *.**.nic.phy80211p.noiseFloor -98dBm
config *.**.nic.phy80211p.usePropagationDelay true
config **.vector-recording true
config **.scalar-recording true
config *.**.nic.phy80211p.*.vector-recording true
config *.**.nic.mac1609_4.*.vector-recording true
config **.rcvdPower:vector.vector-recording true
config **.snir:vector.vector-recording true

par Scenario.node[13].appl typename "\"org.car2x.veins.modules.application.traci.TraCIDemo11p\""
par Scenario.node[13].appl headerLength 80bit
attr unit bit
par Scenario.node[13].appl sendBeacons true
par Scenario.node[13].appl beaconLengthBits 256bit
attr unit bit
par Scenario.node[13].appl beaconUserPriority 7
par Scenario.node[13].appl beaconInterval 0.1s
attr unit s
par Scenario.node[13].appl dataLengthBits 1024bit
attr unit bit
par Scenario.node[13].appl dataOnSch false
par Scenario.node[13].appl dataUserPriority 7
par Scenario.node[13].appl avoidBeaconSynchronization true
par Scenario.node[13].appl sendWSA false
par Scenario.node[13].appl wsaLengthBits 250bit
attr unit bit
par Scenario.node[13].appl wsaInterval 1s
attr unit s
scalar Scenario.node[13].appl generatedWSMs 0
scalar Scenario.node[13].appl receivedWSMs 0
scalar Scenario.node[13].appl generatedBSMs 140
scalar Scenario.node[13].appl receivedBSMs 914
scalar Scenario.node[13].appl generatedWSAs 0
scalar Scenario.node[13].appl receivedWSAs 0
par Scenario.node[13].nic.phy80211p typename "\"org.car2x.veins.modules.phy.PhyLayer80211p\""
par Scenario.node[13].nic.phy80211p recordStats false
par Scenario.node[13].nic.phy80211p usePropagationDelay true
par Scenario.node[13].nic.phy80211p noiseFloor -98dBm
attr unit dBm
par Scenario.node[13].nic.phy80211p useNoiseFloor true
par Scenario.node[13].nic.phy80211p antenna "<root>...</root> at content:1"
par Scenario.node[13].nic.phy80211p antennaOffsetX 0m
attr unit m
par Scenario.node[13].nic.phy80211p antennaOffsetY 0m
attr unit m
par Scenario.node[13].nic.phy80211p antennaOffsetZ 1.895m
attr unit m
par Scenario.node[13].nic.phy80211p antennaOffsetYaw 0rad
attr unit rad
par Scenario.node[13].nic.phy80211p analogueModels "<root>...</root> at /home/vagrant/spe-homework-project/Project/simulations//config_3.xml:2"
par Scenario.node[13].nic.phy80211p decider "<root>...</root> at /home/vagrant/spe-homework-project/Project/simulations//config_3.xml:2"
par Scenario.node[13].nic.phy80211p minPowerLevel -110dBm
attr unit dBm
par Scenario.node[13].nic.phy80211p timeRXToTX 0s
attr unit s
par Scenario.node[13].nic.phy80211p timeRXToSleep 0s
attr unit s
par Scenario.node[13].nic.phy80211p timeTXToRX 0s
attr unit s
par Scenario.node[13].nic.phy80211p timeTXToSleep 0s
attr unit s
par Scenario.node[13].nic.phy80211p timeSleepToRX 0s
attr unit s
par Scenario.node[13].nic.phy80211p timeSleepToTX 0s
attr unit s
par Scenario.node[13].nic.phy80211p initialRadioState 0
par Scenario.node[13].nic.phy80211p radioMinAtt 1
par Scenario.node[13].nic.phy80211p radioMaxAtt 0
par Scenario.node[13].nic.phy80211p nbRadioChannels 1
par Scenario.node[13].nic.phy80211p initialRadioChannel 0
par Scenario.node[13].nic.phy80211p ccaThreshold -65dBm
attr unit dBm
par Scenario.node[13].nic.phy80211p collectCollisionStatistics false
par Scenario.node[13].nic.phy80211p allowTxDuringRx false
scalar Scenario.node[13].nic.phy80211p busyTime 0.0074657142857145
par Scenario.node[13].nic.mac1609_4 typename "\"org.car2x.veins.modules.mac.ieee80211p.Mac1609_4\""
par Scenario.node[13].nic.mac1609_4 notAffectedByHostState false
par Scenario.node[13].nic.mac1609_4 headerLength 0bit
attr unit bit
par Scenario.node[13].nic.mac1609_4 address "\"auto\""
par Scenario.node[13].nic.mac1609_4 useServiceChannel false
par Scenario.node[13].nic.mac1609_4 serviceChannel 1
par Scenario.node[13].nic.mac1609_4 bitrate 6000000bps
attr unit bps
par Scenario.node[13].nic.mac1609_4 syncOffset 0.0003s
attr unit s
par Scenario.node[13].nic.mac1609_4 txPower 20mW
attr unit mW
par Scenario.node[13].nic.mac1609_4 queueSize 0
par Scenario.node[13].nic.mac1609_4 dot11RTSThreshold 12000bit
attr unit bit
par Scenario.node[13].nic.mac1609_4 dot11ShortRetryLimit 7
par Scenario.node[13].nic.mac1609_4 dot11LongRetryLimit 4
par Scenario.node[13].nic.mac1609_4 ackLength 112bit
attr unit bit
par Scenario.node[13].nic.mac1609_4 useAcks false
par Scenario.node[13].nic.mac1609_4 frameErrorRate 0
par Scenario.node[13].nic.mac1609_4 ackErrorRate 0
scalar Scenario.node[13].nic.mac1609_4 ReceivedUnicastPackets 0
scalar Scenario.node[13].nic.mac1609_4 ReceivedBroadcasts 914
scalar Scenario.node[13].nic.mac1609_4 SentPackets 140
scalar Scenario.node[13].nic.mac1609_4 SentAcknowledgements 0
scalar Scenario.node[13].nic.mac1609_4 RetriesExceeded 0
scalar Scenario.node[13].nic.mac1609_4 SNIRLostPackets 91
scalar Scenario.node[13].nic.mac1609_4 RXTXLostPackets 0
scalar Scenario.node[13].nic.mac1609_4 TotalLostPackets 91
scalar Scenario.node[13].nic.mac1609_4 DroppedPacketsInMac 0
scalar Scenario.node[13].nic.mac1609_4 TooLittleTime 0
scalar Scenario.node[13].nic.mac1609_4 TimesIntoBackoff 140
scalar Scenario.node[13].nic.mac1609_4 SlotsBackoff 226
scalar Scenario.node[13].nic.mac1609_4 NumInternalContention 0
scalar Scenario.node[13].nic.mac1609_4 totalBusyTime 0.11922
scalar Scenario.node[13].nic.mac1609_4 retriesExceeded:count 0
attr recordingmode count
attr source org_car2x_veins_modules_mac_sigRetriesExceeded
scalar Scenario.node[13].nic.mac1609_4 sentAcks:count 0
attr recordingmode count
attr source org_car2x_veins_modules_mac_sigSentAck
scalar Scenario.node[13].nic.mac1609_4 sentPackets:count 140
attr recordingmode count
attr source org_car2x_veins_modules_mac_sigSentPacket
scalar Scenario.node[13].nic.mac1609_4 collisions:count 0
attr recordingmode count
attr source org_car2x_veins_modules_mac_sigCollision
scalar Scenario.node[13].nic.mac1609_4 channelBusy:timeavg 0.0085157142857145
attr recordingmode timeavg
attr source org_car2x_veins_modules_mac_sigChannelBusy
par Scenario.node[13].nic typename "\"org.car2x.veins.modules.nic.Nic80211p\""
par Scenario.node[13].nic connectionManagerName "\"connectionManager\""
par Scenario.node[13].veinsmobility typename "\"org.car2x.veins.modules.mobility.traci.TraCIMobility\""
par Scenario.node[13].veinsmobility notAffectedByHostState true
par Scenario.node[13].veinsmobility x 0
par Scenario.node[13].veinsmobility y 0
par Scenario.node[13].veinsmobility z 1.895
par Scenario.node[13].veinsmobility xOrientation 1
par Scenario.node[13].veinsmobility yOrientation 0
par Scenario.node[13].veinsmobility zOrientation 0
par Scenario.node[13].veinsmobility hostPositionOffset 0m
attr unit m
par Scenario.node[13].veinsmobility setHostSpeed false
par Scenario.node[13].veinsmobility accidentCount 0
par Scenario.node[13].veinsmobility accidentStart 44.2097s
attr unit s
par Scenario.node[13].veinsmobility accidentDuration "uniform(30s, 60s)"
attr unit s
par Scenario.node[13].veinsmobility accidentInterval "uniform(30s, 60s)"
attr unit s
scalar Scenario.node[13].veinsmobility startTime 13.1
scalar Scenario.node[13].veinsmobility totalTime 13.9
scalar Scenario.node[13].veinsmobility stopTime 27.1
scalar Scenario.node[13].veinsmobility minSpeed 0.25936657659966
scalar Scenario.node[13].veinsmobility maxSpeed 12.281961331045
scalar Scenario.node[13].veinsmobility totalDistance 134.31170369652
scalar Scenario.node[13].veinsmobility totalCO2Emission 43.327153702491
par Scenario.node[13] typename "\"org.car2x.veins.nodes.Car\""
par Scenario.node[13] applType "\"TraCIDemo11p\""
par Scenario.node[13] nicType "\"Nic80211p\""
par Scenario.node[13] veinsmobilityType "\"org.car2x.veins.modules.mobility.traci.TraCIMobility\""
par Scenario.node[6].appl typename "\"org.car2x.veins.modules.application.traci.TraCIDemo11p\""
par Scenario.node[6].appl headerLength 80bit
attr unit bit
par Scenario.node[6].appl sendBeacons true
par Scenario.node[6].appl beaconLengthBits 256bit
attr unit bit
par Scenario.node[6].appl beaconUserPriority 7
par Scenario.node[6].appl beaconInterval 0.1s
attr unit s
par Scenario.node[6].appl dataLengthBits 1024bit
attr unit bit
par Scenario.node[6].appl dataOnSch false
par Scenario.node[6].appl dataUserPriority 7
par Scenario.node[6].appl avoidBeaconSynchronization true
par Scenario.node[6].appl sendWSA false
par Scenario.node[6].appl wsaLengthBits 250bit
attr unit bit
par Scenario.node[6].appl wsaInterval 1s
attr unit s
scalar Scenario.node[6].appl generatedWSMs 0
scalar Scenario.node[6].appl receivedWSMs 0
scalar Scenario.node[6].appl generatedBSMs 258
scalar Scenario.node[6].appl receivedBSMs 1939
scalar Scenario.node[6].appl generatedWSAs 0
scalar Scenario.node[6].appl receivedWSAs 0
par Scenario.node[6].nic.phy80211p typename "\"org.car2x.veins.modules.phy.PhyLayer80211p\""
par Scenario.node[6].nic.phy80211p recordStats false
par Scenario.node[6].nic.phy80211p usePropagationDelay true
par Scenario.node[6].nic.phy80211p noiseFloor -98dBm
attr unit dBm
par Scenario.node[6].nic.phy80211p useNoiseFloor true
par Scenario.node[6].nic.phy80211p antenna "<root>...</root> at content:1"
par Scenario.node[6].nic.phy80211p antennaOffsetX 0m
attr unit m
par Scenario.node[6].nic.phy80211p antennaOffsetY 0m
attr unit m
par Scenario.node[6].nic.phy80211p antennaOffsetZ 1.895m
attr unit m
par Scenario.node[6].nic.phy80211p antennaOffsetYaw 0rad
attr unit rad
par Scenario.node[6].nic.phy80211p analogueModels "<root>...</root> at /home/vagrant/spe-homework-project/Project/simulations//config_3.xml:2"
par Scenario.node[6].nic.phy80211p decider "<root>...</root> at /home/vagrant/spe-homework-project/Project/simulations//config_3.xml:2"
par Scenario.node[6].nic.phy80211p minPowerLevel -110dBm
attr unit dBm
par Scenario.node[6].nic.phy80211p timeRXToTX 0s
attr unit s
par Scenario.node[6].nic.phy80211p timeRXToSleep 0s
attr unit s
par Scenario.node[6].nic.phy80211p timeTXToRX 0s
attr unit s
par Scenario.node[6].nic.phy80211p timeTXToSleep 0s
attr unit s
par Scenario.node[6].nic.phy80211p timeSleepToRX 0s
attr unit s
par Scenario.node[6].nic.phy80211p timeSleepToTX 0s
attr unit s
par Scenario.node[6].nic.phy80211p initialRadioState 0
par Scenario.node[6].nic.phy80211p radioMinAtt 1
par Scenario.node[6].nic.phy80211p radioMaxAtt 0
par Scenario.node[6].nic.phy80211p nbRadioChannels 1
par Scenario.node[6].nic.phy80211p initialRadioChannel 0
par Scenario.node[6].nic.phy80211p ccaThreshold -65dBm
attr unit dBm
par Scenario.node[6].nic.phy80211p collectCollisionStatistics false
par Scenario.node[6].nic.phy80211p allowTxDuringRx false
scalar Scenario.node[6].nic.phy80211p busyTime 0.008767441860465
par Scenario.node[6].nic.mac1609_4 typename "\"org.car2x.veins.modules.mac.ieee80211p.Mac1609_4\""
par Scenario.node[6].nic.mac1609_4 notAffectedByHostState false
par Scenario.node[6].nic.mac1609_4 headerLength 0bit
attr unit bit
par Scenario.node[6].nic.mac1609_4 address "\"auto\""
par Scenario.node[6].nic.mac1609_4 useServiceChannel false
par Scenario.node[6].nic.mac1609_4 serviceChannel 1
par Scenario.node[6].nic.mac1609_4 bitrate 6000000bps
attr unit bps
par Scenario.node[6].nic.mac1609_4 syncOffset 0.0003s
attr unit s
par Scenario.node[6].nic.mac1609_4 txPower 20mW
attr unit mW
par Scenario.node[6].nic.mac1609_4 queueSize 0
par Scenario.node[6].nic.mac1609_4 dot11RTSThreshold 12000bit
attr unit bit
par Scenario.node[6].nic.mac1609_4 dot11ShortRetryLimit 7
par Scenario.node[6].nic.mac1609_4 dot11LongRetryLimit 4
par Scenario.node[6].nic.mac1609_4 ackLength 112bit
attr unit bit
par Scenario.node[6].nic.mac1609_4 useAcks false
par Scenario.node[6].nic.mac1609_4 frameErrorRate 0
par Scenario.node[6].nic.mac1609_4 ackErrorRate 0
scalar Scenario.node[6].nic.mac1609_4 ReceivedUnicastPackets 0
scalar Scenario.node[6].nic.mac1609_4 ReceivedBroadcasts 1939
scalar Scenario.node[6].nic.mac1609_4 SentPackets 258
scalar Scenario.node[6].nic.mac1609_4 SentAcknowledgements 0
scalar Scenario.node[6].nic.mac1609_4 RetriesExceeded 0
scalar Scenario.node[6].nic.mac1609_4 SNIRLostPackets 236
scalar Scenario.node[6].nic.mac1609_4 RXTXLostPackets 0
scalar Scenario.node[6].nic.mac1609_4 TotalLostPackets 236
scalar Scenario.node[6].nic.mac1609_4 DroppedPacketsInMac 0
scalar Scenario.node[6].nic.mac1609_4 TooLittleTime 0
scalar Scenario.node[6].nic.mac1609_4 TimesIntoBackoff 258
scalar Scenario.node[6].nic.mac1609_4 SlotsBackoff 375
scalar Scenario.node[6].nic.mac1609_4 NumInternalContention 0
scalar Scenario.node[6].nic.mac1609_4 totalBusyTime 0.251418
scalar Scenario.node[6].nic.mac1609_4 retriesExceeded:count 0
attr recordingmode count
attr source org_car2x_veins_modules_mac_sigRetriesExceeded
scalar Scenario.node[6].nic.mac1609_4 sentAcks:count 0
attr recordingmode count
attr source org_car2x_veins_modules_mac_sigSentAck
scalar Scenario.node[6].nic.mac1609_4 sentPackets:count 258
attr recordingmode count
attr source org_car2x_veins_modules_mac_sigSentPacket
scalar Scenario.node[6].nic.mac1609_4 collisions:count 0
attr recordingmode count
attr source org_car2x_veins_modules_mac_sigCollision
scalar Scenario.node[6].nic.mac1609_4 channelBusy:timeavg 0.00974488372093
attr recordingmode timeavg
attr source org_car2x_veins_modules_mac_sigChannelBusy
par Scenario.node[6].nic typename "\"org.car2x.veins.modules.nic.Nic80211p\""
par Scenario.node[6].nic connectionManagerName "\"connectionManager\""
par Scenario.node[6].veinsmobility typename "\"org.car2x.veins.modules.mobility.traci.TraCIMobility\""
par Scenario.node[6].veinsmobility notAffectedByHostState true
par Scenario.node[6].veinsmobility x 0
par Scenario.node[6].veinsmobility y 0
par Scenario.node[6].veinsmobility z 1.895
par Scenario.node[6].veinsmobility xOrientation 1
par Scenario.node[6].veinsmobility yOrientation 0
par Scenario.node[6].veinsmobility zOrientation 0
par Scenario.node[6].veinsmobility hostPositionOffset 0m
attr unit m
par Scenario.node[6].veinsmobility setHostSpeed false
par Scenario.node[6].veinsmobility accidentCount 0
par Scenario.node[6].veinsmobility accidentStart 50.5865s
attr unit s
par Scenario.node[6].veinsmobility accidentDuration "uniform(30s, 60s)"
attr unit s
par Scenario.node[6].veinsmobility accidentInterval "uniform(30s, 60s)"
attr unit s
scalar Scenario.node[6].veinsmobility startTime 6.1
scalar Scenario.node[6].veinsmobility totalTime 25.7
scalar Scenario.node[6].veinsmobility stopTime 31.9
scalar Scenario.node[6].veinsmobility minSpeed 0.25873206313117
scalar Scenario.node[6].veinsmobility maxSpeed 13.869718320857
scalar Scenario.node[6].veinsmobility totalDistance 278.65702184273
scalar Scenario.node[6].veinsmobility totalCO2Emission 90.718835816985
par Scenario.node[6] typename "\"org.car2x.veins.nodes.Car\""
par Scenario.node[6] applType "\"TraCIDemo11p\""
par Scenario.node[6] nicType "\"Nic80211p\""
par Scenario.node[6] veinsmobilityType "\"org.car2x.veins.modules.mobility.traci.TraCIMobility\""
par Scenario.node[7].appl typename "\"org.car2x.veins.modules.application.traci.TraCIDemo11p\""
par Scenario.node[7].appl headerLength 80bit
attr unit bit
par Scenario.node[7].appl sendBeacons true
par Scenario.node[7].appl beaconLengthBits 256bit
attr unit bit
par Scenario.node[7].appl beaconUserPriority 7
par Scenario.node[7].appl beaconInterval 0.1s
attr unit s
par Scenario.node[7].appl dataLengthBits 1024bit
attr unit bit
par Scenario.node[7].appl dataOnSch false
par Scenario.node[7].appl dataUserPriority 7
par Scenario.node[7].appl avoidBeaconSynchronization true
par Scenario.node[7].appl sendWSA false
par Scenario.node[7].appl wsaLengthBits 250bit
attr unit bit
par Scenario.node[7].appl wsaInterval 1s
attr unit s
scalar Scenario.node[7].appl generatedWSMs 0
scalar Scenario.node[7].appl receivedWSMs 0
scalar Scenario.node[7].appl generatedBSMs 251
scalar Scenario.node[7].appl receivedBSMs 2117
scalar Scenario.node[7].appl generatedWSAs 0
scalar Scenario.node[7].appl receivedWSAs 0
par Scenario.node[7].nic.phy80211p typename "\"org.car2x.veins.modules.phy.PhyLayer80211p\""
par Scenario.node[7].nic.phy80211p recordStats false
par Scenario.node[7].nic.phy80211p usePropagationDelay true
par Scenario.node[7].nic.phy80211p noiseFloor -98dBm
attr unit dBm
par Scenario.node[7].nic.phy80211p useNoiseFloor true
par Scenario.node[7].nic.phy80211p antenna "<root>...</root> at content:1"
par Scenario.node[7].nic.phy80211p antennaOffsetX 0m
attr unit m
par Scenario.node[7].nic.phy80211p antennaOffsetY 0m
attr unit m
par Scenario.node[7].nic.phy80211p antennaOffsetZ 1.895m
attr unit m
par Scenario.node[7].nic.phy80211p antennaOffsetYaw 0rad
attr unit rad
par Scenario.node[7].nic.phy80211p analogueModels "<root>...</root> at /home/vagrant/spe-homework-project/Project/simulations//config_3.xml:2"
par Scenario.node[7].nic.phy80211p decider "<root>...</root> at /home/vagrant/spe-homework-project/Project/simulations//config_3.xml:2"
par Scenario.node[7].nic.phy80211p minPowerLevel -110dBm
attr unit dBm
par Scenario.node[7].nic.phy80211p timeRXToTX 0s
attr unit s
par Scenario.node[7].nic.phy80211p timeRXToSleep 0s
attr unit s
par Scenario.node[7].nic.phy80211p timeTXToRX 0s
attr unit s
par Scenario.node[7].nic.phy80211p timeTXToSleep 0s
attr unit s
par Scenario.node[7].nic.phy80211p timeSleepToRX 0s
attr unit s
par Scenario.node[7].nic.phy80211p timeSleepToTX 0s
attr unit s
par Scenario.node[7].nic.phy80211p initialRadioState 0
par Scenario.node[7].nic.phy80211p radioMinAtt 1
par Scenario.node[7].nic.phy80211p radioMaxAtt 0
par Scenario.node[7].nic.phy80211p nbRadioChannels 1
par Scenario.node[7].nic.phy80211p initialRadioChannel 0
par Scenario.node[7].nic.phy80211p ccaThreshold -65dBm
attr unit dBm
par Scenario.node[7].nic.phy80211p collectCollisionStatistics false
par Scenario.node[7].nic.phy80211p allowTxDuringRx false
scalar Scenario.node[7].nic.phy80211p busyTime 0.010341992031872
par Scenario.node[7].nic.mac1609_4 typename "\"org.car2x.veins.modules.mac.ieee80211p.Mac1609_4\""
par Scenario.node[7].nic.mac1609_4 notAffectedByHostState false
par Scenario.node[7].nic.mac1609_4 headerLength 0bit
attr unit bit
par Scenario.node[7].nic.mac1609_4 address "\"auto\""
par Scenario.node[7].nic.mac1609_4 useServiceChannel false
par Scenario.node[7].nic.mac1609_4 serviceChannel 1
par Scenario.node[7].nic.mac1609_4 bitrate 6000000bps
attr unit bps
par Scenario.node[7].nic.mac1609_4 syncOffset 0.0003s
attr unit s
par Scenario.node[7].nic.mac1609_4 txPower 20mW
attr unit mW
par Scenario.node[7].nic.mac1609_4 queueSize 0
par Scenario.node[7].nic.mac1609_4 dot11RTSThreshold 12000bit
attr unit bit
par Scenario.node[7].nic.mac1609_4 dot11ShortRetryLimit 7
par Scenario.node[7].nic.mac1609_4 dot11LongRetryLimit 4
par Scenario.node[7].nic.mac1609_4 ackLength 112bit
attr unit bit
par Scenario.node[7].nic.mac1609_4 useAcks false
par Scenario.node[7].nic.mac1609_4 frameErrorRate 0
par Scenario.node[7].nic.mac1609_4 ackErrorRate 0
scalar Scenario.node[7].nic.mac1609_4 ReceivedUnicastPackets 0
scalar Scenario.node[7].nic.mac1609_4 ReceivedBroadcasts 2117
scalar Scenario.node[7].nic.mac1609_4 SentPackets 251
scalar Scenario.node[7].nic.mac1609_4 SentAcknowledgements 0
scalar Scenario.node[7].nic.mac1609_4 RetriesExceeded 0
scalar Scenario.node[7].nic.mac1609_4 SNIRLostPackets 379
scalar Scenario.node[7].nic.mac1609_4 RXTXLostPackets 0
scalar Scenario.node[7].nic.mac1609_4 TotalLostPackets 379
scalar Scenario.node[7].nic.mac1609_4 DroppedPacketsInMac 0
scalar Scenario.node[7].nic.mac1609_4 TooLittleTime 0
scalar Scenario.node[7].nic.mac1609_4 TimesIntoBackoff 251
scalar Scenario.node[7].nic.mac1609_4 SlotsBackoff 344
scalar Scenario.node[7].nic.mac1609_4 NumInternalContention 0
scalar Scenario.node[7].nic.mac1609_4 totalBusyTime 0.280427
scalar Scenario.node[7].nic.mac1609_4 retriesExceeded:count 0
attr recordingmode count
attr source org_car2x_veins_modules_mac_sigRetriesExceeded
scalar Scenario.node[7].nic.mac1609_4 sentAcks:count 0
attr recordingmode count
attr source org_car2x_veins_modules_mac_sigSentAck
scalar Scenario.node[7].nic.mac1609_4 sentPackets:count 251
attr recordingmode count
attr source org_car2x_veins_modules_mac_sigSentPacket
scalar Scenario.node[7].nic.mac1609_4 collisions:count 0
attr recordingmode count
attr source org_car2x_veins_modules_mac_sigCollision
scalar Scenario.node[7].nic.mac1609_4 channelBusy:timeavg 0.011172390438247
attr recordingmode timeavg
attr source org_car2x_veins_modules_mac_sigChannelBusy
par Scenario.node[7].nic typename "\"org.car2x.veins.modules.nic.Nic80211p\""
par Scenario.node[7].nic connectionManagerName "\"connectionManager\""
par Scenario.node[7].veinsmobility typename "\"org.car2x.veins.modules.mobility.traci.TraCIMobility\""
par Scenario.node[7].veinsmobility notAffectedByHostState true
par Scenario.node[7].veinsmobility x 0
par Scenario.node[7].veinsmobility y 0
par Scenario.node[7].veinsmobility z 1.895
par Scenario.node[7].veinsmobility xOrientation 1
par Scenario.node[7].veinsmobility yOrientation 0
par Scenario.node[7].veinsmobility zOrientation 0
par Scenario.node[7].veinsmobility hostPositionOffset 0m
attr unit m
par Scenario.node[7].veinsmobility setHostSpeed false
par Scenario.node[7].veinsmobility accidentCount 0
par Scenario.node[7].veinsmobility accidentStart 59.6464s
attr unit s
par Scenario.node[7].veinsmobility accidentDuration "uniform(30s, 60s)"
attr unit s
par Scenario.node[7].veinsmobility accidentInterval "uniform(30s, 60s)"
attr unit s
scalar Scenario.node[7].veinsmobility startTime 7.1
scalar Scenario.node[7].veinsmobility totalTime 25
scalar Scenario.node[7].veinsmobility stopTime 32.2
scalar Scenario.node[7].veinsmobility minSpeed 0.25201365683111
scalar Scenario.node[7].veinsmobility maxSpeed 14.430152216582
scalar Scenario.node[7].veinsmobility totalDistance 279.22284262741
scalar Scenario.node[7].veinsmobility totalCO2Emission 93.159366887848
par Scenario.node[7] typename "\"org.car2x.veins.nodes.Car\""
par Scenario.node[7] applType "\"TraCIDemo11p\""
par Scenario.node[7] nicType "\"Nic80211p\""
par Scenario.node[7] veinsmobilityType "\"org.car2x.veins.modules.mobility.traci.TraCIMobility\""
par Scenario.node[1].appl typename "\"org.car2x.veins.modules.application.traci.TraCIDemo11p\""
par Scenario.node[1].appl headerLength 80bit
attr unit bit
par Scenario.node[1].appl sendBeacons true
par Scenario.node[1].appl beaconLengthBits 256bit
attr unit bit
par Scenario.node[1].appl beaconUserPriority 7
par Scenario.node[1].appl beaconInterval 0.1s
attr unit s
par Scenario.node[1].appl dataLengthBits 1024bit
attr unit bit
par Scenario.node[1].appl dataOnSch false
par Scenario.node[1].appl dataUserPriority 7
par Scenario.node[1].appl avoidBeaconSynchronization true
par Scenario.node[1].appl sendWSA false
par Scenario.node[1].appl wsaLengthBits 250bit
attr unit bit
par Scenario.node[1].appl wsaInterval 1s
attr unit s
scalar Scenario.node[1].appl generatedWSMs 1
scalar Scenario.node[1].appl receivedWSMs 8
scalar Scenario.node[1].appl generatedBSMs 402
scalar Scenario.node[1].appl receivedBSMs 2413
scalar Scenario.node[1].appl generatedWSAs 0
scalar Scenario.node[1].appl receivedWSAs 0
par Scenario.node[1].nic.phy80211p typename "\"org.car2x.veins.modules.phy.PhyLayer80211p\""
par Scenario.node[1].nic.phy80211p recordStats false
par Scenario.node[1].nic.phy80211p usePropagationDelay true
par Scenario.node[1].nic.phy80211p noiseFloor -98dBm
attr unit dBm
par Scenario.node[1].nic.phy80211p useNoiseFloor true
par Scenario.node[1].nic.phy80211p antenna "<root>...</root> at content:1"
par Scenario.node[1].nic.phy80211p antennaOffsetX 0m
attr unit m
par Scenario.node[1].nic.phy80211p antennaOffsetY 0m
attr unit m
par Scenario.node[1].nic.phy80211p antennaOffsetZ 1.895m
attr unit m
par Scenario.node[1].nic.phy80211p antennaOffsetYaw 0rad
attr unit rad
par Scenario.node[1].nic.phy80211p analogueModels "<root>...</root> at /home/vagrant/spe-homework-project/Project/simulations//config_3.xml:2"
par Scenario.node[1].nic.phy80211p decider "<root>...</root> at /home/vagrant/spe-homework-project/Project/simulations//config_3.xml:2"
par Scenario.node[1].nic.phy80211p minPowerLevel -110dBm
attr unit dBm
par Scenario.node[1].nic.phy80211p timeRXToTX 0s
attr unit s
par Scenario.node[1].nic.phy80211p timeRXToSleep 0s
attr unit s
par Scenario.node[1].nic.phy80211p timeTXToRX 0s
attr unit s
par Scenario.node[1].nic.phy80211p timeTXToSleep 0s
attr unit s
par Scenario.node[1].nic.phy80211p timeSleepToRX 0s
attr unit s
par Scenario.node[1].nic.phy80211p timeSleepToTX 0s
attr unit s
par Scenario.node[1].nic.phy80211p initialRadioState 0
par Scenario.node[1].nic.phy80211p radioMinAtt 1
par Scenario.node[1].nic.phy80211p radioMaxAtt 0
par Scenario.node[1].nic.phy80211p nbRadioChannels 1
par Scenario.node[1].nic.phy80211p initialRadioChannel 0
par Scenario.node[1].nic.phy80211p ccaThreshold -65dBm
attr unit dBm
par Scenario.node[1].nic.phy80211p collectCollisionStatistics false
par Scenario.node[1].nic.phy80211p allowTxDuringRx false
scalar Scenario.node[1].nic.phy80211p busyTime 0.0075498507462685
par Scenario.node[1].nic.mac1609_4 typename "\"org.car2x.veins.modules.mac.ieee80211p.Mac1609_4\""
par Scenario.node[1].nic.mac1609_4 notAffectedByHostState false
par Scenario.node[1].nic.mac1609_4 headerLength 0bit
attr unit bit
par Scenario.node[1].nic.mac1609_4 address "\"auto\""
par Scenario.node[1].nic.mac1609_4 useServiceChannel false
par Scenario.node[1].nic.mac1609_4 serviceChannel 1
par Scenario.node[1].nic.mac1609_4 bitrate 6000000bps
attr unit bps
par Scenario.node[1].nic.mac1609_4 syncOffset 0.0003s
attr unit s
par Scenario.node[1].nic.mac1609_4 txPower 20mW
attr unit mW
par Scenario.node[1].nic.mac1609_4 queueSize 0
par Scenario.node[1].nic.mac1609_4 dot11RTSThreshold 12000bit
attr unit bit
par Scenario.node[1].nic.mac1609_4 dot11ShortRetryLimit 7
par Scenario.node[1].nic.mac1609_4 dot11LongRetryLimit 4
par Scenario.node[1].nic.mac1609_4 ackLength 112bit
attr unit bit
par Scenario.node[1].nic.mac1609_4 useAcks false
par Scenario.node[1].nic.mac1609_4 frameErrorRate 0
par Scenario.node[1].nic.mac1609_4 ackErrorRate 0
scalar Scenario.node[1].nic.mac1609_4 ReceivedUnicastPackets 0
scalar Scenario.node[1].nic.mac1609_4 ReceivedBroadcasts 2421
scalar Scenario.node[1].nic.mac1609_4 SentPackets 403
scalar Scenario.node[1].nic.mac1609_4 SentAcknowledgements 0
scalar Scenario.node[1].nic.mac1609_4 RetriesExceeded 0
scalar Scenario.node[1].nic.mac1609_4 SNIRLostPackets 485
scalar Scenario.node[1].nic.mac1609_4 RXTXLostPackets 0
scalar Scenario.node[1].nic.mac1609_4 TotalLostPackets 485
scalar Scenario.node[1].nic.mac1609_4 DroppedPacketsInMac 0
scalar Scenario.node[1].nic.mac1609_4 TooLittleTime 0
scalar Scenario.node[1].nic.mac1609_4 TimesIntoBackoff 403
scalar Scenario.node[1].nic.mac1609_4 SlotsBackoff 616
scalar Scenario.node[1].nic.mac1609_4 NumInternalContention 0
scalar Scenario.node[1].nic.mac1609_4 totalBusyTime 0.343763
scalar Scenario.node[1].nic.mac1609_4 retriesExceeded:count 0
attr recordingmode count
attr source org_car2x_veins_modules_mac_sigRetriesExceeded
scalar Scenario.node[1].nic.mac1609_4 sentAcks:count 0
attr recordingmode count
attr source org_car2x_veins_modules_mac_sigSentAck
scalar Scenario.node[1].nic.mac1609_4 sentPackets:count 403
attr recordingmode count
attr source org_car2x_veins_modules_mac_sigSentPacket
scalar Scenario.node[1].nic.mac1609_4 collisions:count 0
attr recordingmode count
attr source org_car2x_veins_modules_mac_sigCollision
scalar Scenario.node[1].nic.mac1609_4 channelBusy:timeavg 0.00855131840796
attr recordingmode timeavg
attr source org_car2x_veins_modules_mac_sigChannelBusy
par Scenario.node[1].nic typename "\"org.car2x.veins.modules.nic.Nic80211p\""
par Scenario.node[1].nic connectionManagerName "\"connectionManager\""
par Scenario.node[1].veinsmobility typename "\"org.car2x.veins.modules.mobility.traci.TraCIMobility\""
par Scenario.node[1].veinsmobility notAffectedByHostState true
par Scenario.node[1].veinsmobility x 0
par Scenario.node[1].veinsmobility y 0
par Scenario.node[1].veinsmobility z 1.895
par Scenario.node[1].veinsmobility xOrientation 1
par Scenario.node[1].veinsmobility yOrientation 0
par Scenario.node[1].veinsmobility zOrientation 0
par Scenario.node[1].veinsmobility hostPositionOffset 0m
attr unit m
par Scenario.node[1].veinsmobility setHostSpeed false
par Scenario.node[1].veinsmobility accidentCount 0
par Scenario.node[1].veinsmobility accidentStart 42.5812s
attr unit s
par Scenario.node[1].veinsmobility accidentDuration "uniform(30s, 60s)"
attr unit s
par Scenario.node[1].veinsmobility accidentInterval "uniform(30s, 60s)"
attr unit s
scalar Scenario.node[1].veinsmobility startTime 1.1
scalar Scenario.node[1].veinsmobility totalTime 40.1
scalar Scenario.node[1].veinsmobility stopTime 41.3
scalar Scenario.node[1].veinsmobility minSpeed 0.24868838627916
scalar Scenario.node[1].veinsmobility maxSpeed 13.821775300907
scalar Scenario.node[1].veinsmobility totalDistance 424.78341507549
scalar Scenario.node[1].veinsmobility totalCO2Emission 136.75350461099
par Scenario.node[1] typename "\"org.car2x.veins.nodes.Car\""
par Scenario.node[1] applType "\"TraCIDemo11p\""
par Scenario.node[1] nicType "\"Nic80211p\""
par Scenario.node[1] veinsmobilityType "\"org.car2x.veins.modules.mobility.traci.TraCIMobility\""
par Scenario.node[0].appl typename "\"org.car2x.veins.modules.application.traci.TraCIDemo11p\""
par Scenario.node[0].appl headerLength 80bit
attr unit bit
par Scenario.node[0].appl sendBeacons true
par Scenario.node[0].appl beaconLengthBits 256bit
attr unit bit
par Scenario.node[0].appl beaconUserPriority 7
par Scenario.node[0].appl beaconInterval 0.1s
attr unit s
par Scenario.node[0].appl dataLengthBits 1024bit
attr unit bit
par Scenario.node[0].appl dataOnSch false
par Scenario.node[0].appl dataUserPriority 7
par Scenario.node[0].appl avoidBeaconSynchronization true
par Scenario.node[0].appl sendWSA false
par Scenario.node[0].appl wsaLengthBits 250bit
attr unit bit
par Scenario.node[0].appl wsaInterval 1s
attr unit s
scalar Scenario.node[0].appl generatedWSMs 1
scalar Scenario.node[0].appl receivedWSMs 11
scalar Scenario.node[0].appl generatedBSMs 472
scalar Scenario.node[0].appl receivedBSMs 2949
scalar Scenario.node[0].appl generatedWSAs 0
scalar Scenario.node[0].appl receivedWSAs 0
par Scenario.node[0].nic.phy80211p typename "\"org.car2x.veins.modules.phy.PhyLayer80211p\""
par Scenario.node[0].nic.phy80211p recordStats false
par Scenario.node[0].nic.phy80211p usePropagationDelay true
par Scenario.node[0].nic.phy80211p noiseFloor -98dBm
attr unit dBm
par Scenario.node[0].nic.phy80211p useNoiseFloor true
par Scenario.node[0].nic.phy80211p antenna "<root>...</root> at content:1"
par Scenario.node[0].nic.phy80211p antennaOffsetX 0m
attr unit m
par Scenario.node[0].nic.phy80211p antennaOffsetY 0m
attr unit m
par Scenario.node[0].nic.phy80211p antennaOffsetZ 1.895m
attr unit m
par Scenario.node[0].nic.phy80211p antennaOffsetYaw 0rad
attr unit rad
par Scenario.node[0].nic.phy80211p analogueModels "<root>...</root> at /home/vagrant/spe-homework-project/Project/simulations//config_3.xml:2"
par Scenario.node[0].nic.phy80211p decider "<root>...</root> at /home/vagrant/spe-homework-project/Project/simulations//config_3.xml:2"
par Scenario.node[0].nic.phy80211p minPowerLevel -110dBm
attr unit dBm
par Scenario.node[0].nic.phy80211p timeRXToTX 0s
attr unit s
par Scenario.node[0].nic.phy80211p timeRXToSleep 0s
attr unit s
par Scenario.node[0].nic.phy80211p timeTXToRX 0s
attr unit s
par Scenario.node[0].nic.phy80211p timeTXToSleep 0s
attr unit s
par Scenario.node[0].nic.phy80211p timeSleepToRX 0s
attr unit s
par Scenario.node[0].nic.phy80211p timeSleepToTX 0s
attr unit s
par Scenario.node[0].nic.phy80211p initialRadioState 0
par Scenario.node[0].nic.phy80211p radioMinAtt 1
par Scenario.node[0].nic.phy80211p radioMaxAtt 0
par Scenario.node[0].nic.phy80211p nbRadioChannels 1
par Scenario.node[0].nic.phy80211p initialRadioChannel 0
par Scenario.node[0].nic.phy80211p ccaThreshold -65dBm
attr unit dBm
par Scenario.node[0].nic.phy80211p collectCollisionStatistics false
par Scenario.node[0].nic.phy80211p allowTxDuringRx false
scalar Scenario.node[0].nic.phy80211p busyTime 0.0076611864406777
par Scenario.node[0].nic.mac1609_4 typename "\"org.car2x.veins.modules.mac.ieee80211p.Mac1609_4\""
par Scenario.node[0].nic.mac1609_4 notAffectedByHostState false
par Scenario.node[0].nic.mac1609_4 headerLength 0bit
attr unit bit
par Scenario.node[0].nic.mac1609_4 address "\"auto\""
par Scenario.node[0].nic.mac1609_4 useServiceChannel false
par Scenario.node[0].nic.mac1609_4 serviceChannel 1
par Scenario.node[0].nic.mac1609_4 bitrate 6000000bps
attr unit bps
par Scenario.node[0].nic.mac1609_4 syncOffset 0.0003s
attr unit s
par Scenario.node[0].nic.mac1609_4 txPower 20mW
attr unit mW
par Scenario.node[0].nic.mac1609_4 queueSize 0
par Scenario.node[0].nic.mac1609_4 dot11RTSThreshold 12000bit
attr unit bit
par Scenario.node[0].nic.mac1609_4 dot11ShortRetryLimit 7
par Scenario.node[0].nic.mac1609_4 dot11LongRetryLimit 4
par Scenario.node[0].nic.mac1609_4 ackLength 112bit
attr unit bit
par Scenario.node[0].nic.mac1609_4 useAcks false
par Scenario.node[0].nic.mac1609_4 frameErrorRate 0
par Scenario.node[0].nic.mac1609_4 ackErrorRate 0
scalar Scenario.node[0].nic.mac1609_4 ReceivedUnicastPackets 0
scalar Scenario.node[0].nic.mac1609_4 ReceivedBroadcasts 2960
scalar Scenario.node[0].nic.mac1609_4 SentPackets 473
scalar Scenario.node[0].nic.mac1609_4 SentAcknowledgements 0
scalar Scenario.node[0].nic.mac1609_4 RetriesExceeded 0
scalar Scenario.node[0].nic.mac1609_4 SNIRLostPackets 501
scalar Scenario.node[0].nic.mac1609_4 RXTXLostPackets 0
scalar Scenario.node[0].nic.mac1609_4 TotalLostPackets 501
scalar Scenario.node[0].nic.mac1609_4 DroppedPacketsInMac 0
scalar Scenario.node[0].nic.mac1609_4 TooLittleTime 0
scalar Scenario.node[0].nic.mac1609_4 TimesIntoBackoff 473
scalar Scenario.node[0].nic.mac1609_4 SlotsBackoff 673
scalar Scenario.node[0].nic.mac1609_4 NumInternalContention 0
scalar Scenario.node[0].nic.mac1609_4 totalBusyTime 0.408905
scalar Scenario.node[0].nic.mac1609_4 retriesExceeded:count 0
attr recordingmode count
attr source org_car2x_veins_modules_mac_sigRetriesExceeded
scalar Scenario.node[0].nic.mac1609_4 sentAcks:count 0
attr recordingmode count
attr source org_car2x_veins_modules_mac_sigSentAck
scalar Scenario.node[0].nic.mac1609_4 sentPackets:count 473
attr recordingmode count
attr source org_car2x_veins_modules_mac_sigSentPacket
scalar Scenario.node[0].nic.mac1609_4 collisions:count 0
attr recordingmode count
attr source org_car2x_veins_modules_mac_sigCollision
scalar Scenario.node[0].nic.mac1609_4 channelBusy:timeavg 0.0086632415254235
attr recordingmode timeavg
attr source org_car2x_veins_modules_mac_sigChannelBusy
par Scenario.node[0].nic typename "\"org.car2x.veins.modules.nic.Nic80211p\""
par Scenario.node[0].nic connectionManagerName "\"connectionManager\""
par Scenario.node[0].veinsmobility typename "\"org.car2x.veins.modules.mobility.traci.TraCIMobility\""
par Scenario.node[0].veinsmobility notAffectedByHostState true
par Scenario.node[0].veinsmobility x 0
par Scenario.node[0].veinsmobility y 0
par Scenario.node[0].veinsmobility z 1.895
par Scenario.node[0].veinsmobility xOrientation 1
par Scenario.node[0].veinsmobility yOrientation 0
par Scenario.node[0].veinsmobility zOrientation 0
par Scenario.node[0].veinsmobility hostPositionOffset 0m
attr unit m
par Scenario.node[0].veinsmobility setHostSpeed false
par Scenario.node[0].veinsmobility accidentCount 0
par Scenario.node[0].veinsmobility accidentStart 32.2892s
attr unit s
par Scenario.node[0].veinsmobility accidentDuration "uniform(30s, 60s)"
attr unit s
par Scenario.node[0].veinsmobility accidentInterval "uniform(30s, 60s)"
attr unit s
scalar Scenario.node[0].veinsmobility startTime 0.1
scalar Scenario.node[0].veinsmobility totalTime 47.1
scalar Scenario.node[0].veinsmobility stopTime 47.3
scalar Scenario.node[0].veinsmobility minSpeed 0.25949869816448
scalar Scenario.node[0].veinsmobility maxSpeed 15.372893704337
scalar Scenario.node[0].veinsmobility totalDistance 569.6507914226
scalar Scenario.node[0].veinsmobility totalCO2Emission 174.50075790138
par Scenario.node[0] typename "\"org.car2x.veins.nodes.Car\""
par Scenario.node[0] applType "\"TraCIDemo11p\""
par Scenario.node[0] nicType "\"Nic80211p\""
par Scenario.node[0] veinsmobilityType "\"org.car2x.veins.modules.mobility.traci.TraCIMobility\""
par Scenario.node[10].appl typename "\"org.car2x.veins.modules.application.traci.TraCIDemo11p\""
par Scenario.node[10].appl headerLength 80bit
attr unit bit
par Scenario.node[10].appl sendBeacons true
par Scenario.node[10].appl beaconLengthBits 256bit
attr unit bit
par Scenario.node[10].appl beaconUserPriority 7
par Scenario.node[10].appl beaconInterval 0.1s
attr unit s
par Scenario.node[10].appl dataLengthBits 1024bit
attr unit bit
par Scenario.node[10].appl dataOnSch false
par Scenario.node[10].appl dataUserPriority 7
par Scenario.node[10].appl avoidBeaconSynchronization true
par Scenario.node[10].appl sendWSA false
par Scenario.node[10].appl wsaLengthBits 250bit
attr unit bit
par Scenario.node[10].appl wsaInterval 1s
attr unit s
scalar Scenario.node[10].appl generatedWSMs 1
scalar Scenario.node[10].appl receivedWSMs 18
scalar Scenario.node[10].appl generatedBSMs 425
scalar Scenario.node[10].appl receivedBSMs 4440
scalar Scenario.node[10].appl generatedWSAs 0
scalar Scenario.node[10].appl receivedWSAs 0
par Scenario.node[10].nic.phy80211p typename "\"org.car2x.veins.modules.phy.PhyLayer80211p\""
par Scenario.node[10].nic.phy80211p recordStats false
par Scenario.node[10].nic.phy80211p usePropagationDelay true
par Scenario.node[10].nic.phy80211p noiseFloor -98dBm
attr unit dBm
par Scenario.node[10].nic.phy80211p useNoiseFloor true
par Scenario.node[10].nic.phy80211p antenna "<root>...</root> at content:1"
par Scenario.node[10].nic.phy80211p antennaOffsetX 0m
attr unit m
par Scenario.node[10].nic.phy80211p antennaOffsetY 0m
attr unit m
par Scenario.node[10].nic.phy80211p antennaOffsetZ 1.895m
attr unit m
par Scenario.node[10].nic.phy80211p antennaOffsetYaw 0rad
attr unit rad
par Scenario.node[10].nic.phy80211p analogueModels "<root>...</root> at /home/vagrant/spe-homework-project/Project/simulations//config_3.xml:2"
par Scenario.node[10].nic.phy80211p decider "<root>...</root> at /home/vagrant/spe-homework-project/Project/simulations//config_3.xml:2"
par Scenario.node[10].nic.phy80211p minPowerLevel -110dBm
attr unit dBm
par Scenario.node[10].nic.phy80211p timeRXToTX 0s
attr unit s
par Scenario.node[10].nic.phy80211p timeRXToSleep 0s
attr unit s
par Scenario.node[10].nic.phy80211p timeTXToRX 0s
attr unit s
par Scenario.node[10].nic.phy80211p timeTXToSleep 0s
attr unit s
par Scenario.node[10].nic.phy80211p timeSleepToRX 0s
attr unit s
par Scenario.node[10].nic.phy80211p timeSleepToTX 0s
attr unit s
par Scenario.node[10].nic.phy80211p initialRadioState 0
par Scenario.node[10].nic.phy80211p radioMinAtt 1
par Scenario.node[10].nic.phy80211p radioMaxAtt 0
par Scenario.node[10].nic.phy80211p nbRadioChannels 1
par Scenario.node[10].nic.phy80211p initialRadioChannel 0
par Scenario.node[10].nic.phy80211p ccaThreshold -65dBm
attr unit dBm
par Scenario.node[10].nic.phy80211p collectCollisionStatistics false
par Scenario.node[10].nic.phy80211p allowTxDuringRx false
scalar Scenario.node[10].nic.phy80211p busyTime 0.013526964705882
par Scenario.node[10].nic.mac1609_4 typename "\"org.car2x.veins.modules.mac.ieee80211p.Mac1609_4\""
par Scenario.node[10].nic.mac1609_4 notAffectedByHostState false
par Scenario.node[10].nic.mac1609_4 headerLength 0bit
attr unit bit
par Scenario.node[10].nic.mac1609_4 address "\"auto\""
par Scenario.node[10].nic.mac1609_4 useServiceChannel false
par Scenario.node[10].nic.mac1609_4 serviceChannel 1
par Scenario.node[10].nic.mac1609_4 bitrate 6000000bps
attr unit bps
par Scenario.node[10].nic.mac1609_4 syncOffset 0.0003s
attr unit s
par Scenario.node[10].nic.mac1609_4 txPower 20mW
attr unit mW
par Scenario.node[10].nic.mac1609_4 queueSize 0
par Scenario.node[10].nic.mac1609_4 dot11RTSThreshold 12000bit
attr unit bit
par Scenario.node[10].nic.mac1609_4 dot11ShortRetryLimit 7
par Scenario.node[10].nic.mac1609_4 dot11LongRetryLimit 4
par Scenario.node[10].nic.mac1609_4 ackLength 112bit
attr unit bit
par Scenario.node[10].nic.mac1609_4 useAcks false
par Scenario.node[10].nic.mac1609_4 frameErrorRate 0
par Scenario.node[10].nic.mac1609_4 ackErrorRate 0
scalar Scenario.node[10].nic.mac1609_4 ReceivedUnicastPackets 0
scalar Scenario.node[10].nic.mac1609_4 ReceivedBroadcasts 4458
scalar Scenario.node[10].nic.mac1609_4 SentPackets 426
scalar Scenario.node[10].nic.mac1609_4 SentAcknowledgements 0
scalar Scenario.node[10].nic.mac1609_4 RetriesExceeded 0
scalar Scenario.node[10].nic.mac1609_4 SNIRLostPackets 1044
scalar Scenario.node[10].nic.mac1609_4 RXTXLostPackets 0
scalar Scenario.node[10].nic.mac1609_4 TotalLostPackets 1044
scalar Scenario.node[10].nic.mac1609_4 DroppedPacketsInMac 0
scalar Scenario.node[10].nic.mac1609_4 TooLittleTime 0
scalar Scenario.node[10].nic.mac1609_4 TimesIntoBackoff 426
scalar Scenario.node[10].nic.mac1609_4 SlotsBackoff 647
scalar Scenario.node[10].nic.mac1609_4 NumInternalContention 0
scalar Scenario.node[10].nic.mac1609_4 totalBusyTime 0.600513286726
scalar Scenario.node[10].nic.mac1609_4 retriesExceeded:count 0
attr recordingmode count
attr source org_car2x_veins_modules_mac_sigRetriesExceeded
scalar Scenario.node[10].nic.mac1609_4 sentAcks:count 0
attr recordingmode count
attr source org_car2x_veins_modules_mac_sigSentAck
scalar Scenario.node[10].nic.mac1609_4 sentPackets:count 426
attr recordingmode count
attr source org_car2x_veins_modules_mac_sigSentPacket
scalar Scenario.node[10].nic.mac1609_4 collisions:count 0
attr recordingmode count
attr source org_car2x_veins_modules_mac_sigCollision
scalar Scenario.node[10].nic.mac1609_4 channelBusy:timeavg 0.014129724393552
attr recordingmode timeavg
attr source org_car2x_veins_modules_mac_sigChannelBusy
par Scenario.node[10].nic typename "\"org.car2x.veins.modules.nic.Nic80211p\""
par Scenario.node[10].nic connectionManagerName "\"connectionManager\""
par Scenario.node[10].veinsmobility typename "\"org.car2x.veins.modules.mobility.traci.TraCIMobility\""
par Scenario.node[10].veinsmobility notAffectedByHostState true
par Scenario.node[10].veinsmobility x 0
par Scenario.node[10].veinsmobility y 0
par Scenario.node[10].veinsmobility z 1.895
par Scenario.node[10].veinsmobility xOrientation 1
par Scenario.node[10].veinsmobility yOrientation 0
par Scenario.node[10].veinsmobility zOrientation 0
par Scenario.node[10].veinsmobility hostPositionOffset 0m
attr unit m
par Scenario.node[10].veinsmobility setHostSpeed false
par Scenario.node[10].veinsmobility accidentCount 0
par Scenario.node[10].veinsmobility accidentStart 45.759s
attr unit s
par Scenario.node[10].veinsmobility accidentDuration "uniform(30s, 60s)"
attr unit s
par Scenario.node[10].veinsmobility accidentInterval "uniform(30s, 60s)"
attr unit s
scalar Scenario.node[10].veinsmobility startTime 11.1
scalar Scenario.node[10].veinsmobility totalTime 42.4
scalar Scenario.node[10].veinsmobility stopTime 53.6
scalar Scenario.node[10].veinsmobility minSpeed 0.25446562165231
scalar Scenario.node[10].veinsmobility maxSpeed 12.21290187329
scalar Scenario.node[10].veinsmobility totalDistance 428.59675925355
scalar Scenario.node[10].veinsmobility totalCO2Emission 123.61517913921
par Scenario.node[10] typename "\"org.car2x.veins.nodes.Car\""
par Scenario.node[10] applType "\"TraCIDemo11p\""
par Scenario.node[10] nicType "\"Nic80211p\""
par Scenario.node[10] veinsmobilityType "\"org.car2x.veins.modules.mobility.traci.TraCIMobility\""
par Scenario.node[2].appl typename "\"org.car2x.veins.modules.application.traci.TraCIDemo11p\""
par Scenario.node[2].appl headerLength 80bit
attr unit bit
par Scenario.node[2].appl sendBeacons true
par Scenario.node[2].appl beaconLengthBits 256bit
attr unit bit
par Scenario.node[2].appl beaconUserPriority 7
par Scenario.node[2].appl beaconInterval 0.1s
attr unit s
par Scenario.node[2].appl dataLengthBits 1024bit
attr unit bit
par Scenario.node[2].appl dataOnSch false
par Scenario.node[2].appl dataUserPriority 7
par Scenario.node[2].appl avoidBeaconSynchronization true
par Scenario.node[2].appl sendWSA false
par Scenario.node[2].appl wsaLengthBits 250bit
attr unit bit
par Scenario.node[2].appl wsaInterval 1s
attr unit s
scalar Scenario.node[2].appl generatedWSMs 1
scalar Scenario.node[2].appl receivedWSMs 15
scalar Scenario.node[2].appl generatedBSMs 522
scalar Scenario.node[2].appl receivedBSMs 4752
scalar Scenario.node[2].appl generatedWSAs 0
scalar Scenario.node[2].appl receivedWSAs 0
par Scenario.node[2].nic.phy80211p typename "\"org.car2x.veins.modules.phy.PhyLayer80211p\""
par Scenario.node[2].nic.phy80211p recordStats false
par Scenario.node[2].nic.phy80211p usePropagationDelay true
par Scenario.node[2].nic.phy80211p noiseFloor -98dBm
attr unit dBm
par Scenario.node[2].nic.phy80211p useNoiseFloor true
par Scenario.node[2].nic.phy80211p antenna "<root>...</root> at content:1"
par Scenario.node[2].nic.phy80211p antennaOffsetX 0m
attr unit m
par Scenario.node[2].nic.phy80211p antennaOffsetY 0m
attr unit m
par Scenario.node[2].nic.phy80211p antennaOffsetZ 1.895m
attr unit m
par Scenario.node[2].nic.phy80211p antennaOffsetYaw 0rad
attr unit rad
par Scenario.node[2].nic.phy80211p analogueModels "<root>...</root> at /home/vagrant/spe-homework-project/Project/simulations//config_3.xml:2"
par Scenario.node[2].nic.phy80211p decider "<root>...</root> at /home/vagrant/spe-homework-project/Project/simulations//config_3.xml:2"
par Scenario.node[2].nic.phy80211p minPowerLevel -110dBm
attr unit dBm
par Scenario.node[2].nic.phy80211p timeRXToTX 0s
attr unit s
par Scenario.node[2].nic.phy80211p timeRXToSleep 0s
attr unit s
par Scenario.node[2].nic.phy80211p timeTXToRX 0s
attr unit s
par Scenario.node[2].nic.phy80211p timeTXToSleep 0s
attr unit s
par Scenario.node[2].nic.phy80211p timeSleepToRX 0s
attr unit s
par Scenario.node[2].nic.phy80211p timeSleepToTX 0s
attr unit s
par Scenario.node[2].nic.phy80211p initialRadioState 0
par Scenario.node[2].nic.phy80211p radioMinAtt 1
par Scenario.node[2].nic.phy80211p radioMaxAtt 0
par Scenario.node[2].nic.phy80211p nbRadioChannels 1
par Scenario.node[2].nic.phy80211p initialRadioChannel 0
par Scenario.node[2].nic.phy80211p ccaThreshold -65dBm
attr unit dBm
par Scenario.node[2].nic.phy80211p collectCollisionStatistics false
par Scenario.node[2].nic.phy80211p allowTxDuringRx false
scalar Scenario.node[2].nic.phy80211p busyTime 0.011731647509578
par Scenario.node[2].nic.mac1609_4 typename "\"org.car2x.veins.modules.mac.ieee80211p.Mac1609_4\""
par Scenario.node[2].nic.mac1609_4 notAffectedByHostState false
par Scenario.node[2].nic.mac1609_4 headerLength 0bit
attr unit bit
par Scenario.node[2].nic.mac1609_4 address "\"auto\""
par Scenario.node[2].nic.mac1609_4 useServiceChannel false
par Scenario.node[2].nic.mac1609_4 serviceChannel 1
par Scenario.node[2].nic.mac1609_4 bitrate 6000000bps
attr unit bps
par Scenario.node[2].nic.mac1609_4 syncOffset 0.0003s
attr unit s
par Scenario.node[2].nic.mac1609_4 txPower 20mW
attr unit mW
par Scenario.node[2].nic.mac1609_4 queueSize 0
par Scenario.node[2].nic.mac1609_4 dot11RTSThreshold 12000bit
attr unit bit
par Scenario.node[2].nic.mac1609_4 dot11ShortRetryLimit 7
par Scenario.node[2].nic.mac1609_4 dot11LongRetryLimit 4
par Scenario.node[2].nic.mac1609_4 ackLength 112bit
attr unit bit
par Scenario.node[2].nic.mac1609_4 useAcks false
par Scenario.node[2].nic.mac1609_4 frameErrorRate 0
par Scenario.node[2].nic.mac1609_4 ackErrorRate 0
scalar Scenario.node[2].nic.mac1609_4 ReceivedUnicastPackets 0
scalar Scenario.node[2].nic.mac1609_4 ReceivedBroadcasts 4767
scalar Scenario.node[2].nic.mac1609_4 SentPackets 523
scalar Scenario.node[2].nic.mac1609_4 SentAcknowledgements 0
scalar Scenario.node[2].nic.mac1609_4 RetriesExceeded 0
scalar Scenario.node[2].nic.mac1609_4 SNIRLostPackets 1098
scalar Scenario.node[2].nic.mac1609_4 RXTXLostPackets 0
scalar Scenario.node[2].nic.mac1609_4 TotalLostPackets 1098
scalar Scenario.node[2].nic.mac1609_4 DroppedPacketsInMac 0
scalar Scenario.node[2].nic.mac1609_4 TooLittleTime 0
scalar Scenario.node[2].nic.mac1609_4 TimesIntoBackoff 523
scalar Scenario.node[2].nic.mac1609_4 SlotsBackoff 804
scalar Scenario.node[2].nic.mac1609_4 NumInternalContention 0
scalar Scenario.node[2].nic.mac1609_4 totalBusyTime 0.644345558769
scalar Scenario.node[2].nic.mac1609_4 retriesExceeded:count 0
attr recordingmode count
attr source org_car2x_veins_modules_mac_sigRetriesExceeded
scalar Scenario.node[2].nic.mac1609_4 sentAcks:count 0
attr recordingmode count
attr source org_car2x_veins_modules_mac_sigSentAck
scalar Scenario.node[2].nic.mac1609_4 sentPackets:count 523
attr recordingmode count
attr source org_car2x_veins_modules_mac_sigSentPacket
scalar Scenario.node[2].nic.mac1609_4 collisions:count 0
attr recordingmode count
attr source org_car2x_veins_modules_mac_sigCollision
scalar Scenario.node[2].nic.mac1609_4 channelBusy:timeavg 0.012343784650747
attr recordingmode timeavg
attr source org_car2x_veins_modules_mac_sigChannelBusy
par Scenario.node[2].nic typename "\"org.car2x.veins.modules.nic.Nic80211p\""
par Scenario.node[2].nic connectionManagerName "\"connectionManager\""
par Scenario.node[2].veinsmobility typename "\"org.car2x.veins.modules.mobility.traci.TraCIMobility\""
par Scenario.node[2].veinsmobility notAffectedByHostState true
par Scenario.node[2].veinsmobility x 0
par Scenario.node[2].veinsmobility y 0
par Scenario.node[2].veinsmobility z 1.895
par Scenario.node[2].veinsmobility xOrientation 1
par Scenario.node[2].veinsmobility yOrientation 0
par Scenario.node[2].veinsmobility zOrientation 0
par Scenario.node[2].veinsmobility hostPositionOffset 0m
attr unit m
par Scenario.node[2].veinsmobility setHostSpeed false
par Scenario.node[2].veinsmobility accidentCount 0
par Scenario.node[2].veinsmobility accidentStart 42.6712s
attr unit s
par Scenario.node[2].veinsmobility accidentDuration "uniform(30s, 60s)"
attr unit s
par Scenario.node[2].veinsmobility accidentInterval "uniform(30s, 60s)"
attr unit s
scalar Scenario.node[2].veinsmobility startTime 2.1
scalar Scenario.node[2].veinsmobility totalTime 52.1
scalar Scenario.node[2].veinsmobility stopTime 54.3
scalar Scenario.node[2].veinsmobility minSpeed 0
scalar Scenario.node[2].veinsmobility maxSpeed 16.303482366413
scalar Scenario.node[2].veinsmobility totalDistance 576.31077668646
scalar Scenario.node[2].veinsmobility totalCO2Emission 208.12061275268
par Scenario.node[2] typename "\"org.car2x.veins.nodes.Car\""
par Scenario.node[2] applType "\"TraCIDemo11p\""
par Scenario.node[2] nicType "\"Nic80211p\""
par Scenario.node[2] veinsmobilityType "\"org.car2x.veins.modules.mobility.traci.TraCIMobility\""
par Scenario.node[16].appl typename "\"org.car2x.veins.modules.application.traci.TraCIDemo11p\""
par Scenario.node[16].appl headerLength 80bit
attr unit bit
par Scenario.node[16].appl sendBeacons true
par Scenario.node[16].appl beaconLengthBits 256bit
attr unit bit
par Scenario.node[16].appl beaconUserPriority 7
par Scenario.node[16].appl beaconInterval 0.1s
attr unit s
par Scenario.node[16].appl dataLengthBits 1024bit
attr unit bit
par Scenario.node[16].appl dataOnSch false
par Scenario.node[16].appl dataUserPriority 7
par Scenario.node[16].appl avoidBeaconSynchronization true
par Scenario.node[16].appl sendWSA false
par Scenario.node[16].appl wsaLengthBits 250bit
attr unit bit
par Scenario.node[16].appl wsaInterval 1s
attr unit s
scalar Scenario.node[16].appl generatedWSMs 1
scalar Scenario.node[16].appl receivedWSMs 6
scalar Scenario.node[16].appl generatedBSMs 450
scalar Scenario.node[16].appl receivedBSMs 5658
scalar Scenario.node[16].appl generatedWSAs 0
scalar Scenario.node[16].appl receivedWSAs 0
par Scenario.node[16].nic.phy80211p typename "\"org.car2x.veins.modules.phy.PhyLayer80211p\""
par Scenario.node[16].nic.phy80211p recordStats false
par Scenario.node[16].nic.phy80211p usePropagationDelay true
par Scenario.node[16].nic.phy80211p noiseFloor -98dBm
attr unit dBm
par Scenario.node[16].nic.phy80211p useNoiseFloor true
par Scenario.node[16].nic.phy80211p antenna "<root>...</root> at content:1"
par Scenario.node[16].nic.phy80211p antennaOffsetX 0m
attr unit m
par Scenario.node[16].nic.phy80211p antennaOffsetY 0m
attr unit m
par Scenario.node[16].nic.phy80211p antennaOffsetZ 1.895m
attr unit m
par Scenario.node[16].nic.phy80211p antennaOffsetYaw 0rad
attr unit rad
par Scenario.node[16].nic.phy80211p analogueModels "<root>...</root> at /home/vagrant/spe-homework-project/Project/simulations//config_3.xml:2"
par Scenario.node[16].nic.phy80211p decider "<root>...</root> at /home/vagrant/spe-homework-project/Project/simulations//config_3.xml:2"
par Scenario.node[16].nic.phy80211p minPowerLevel -110dBm
attr unit dBm
par Scenario.node[16].nic.phy80211p timeRXToTX 0s
attr unit s
par Scenario.node[16].nic.phy80211p timeRXToSleep 0s
attr unit s
par Scenario.node[16].nic.phy80211p timeTXToRX 0s
attr unit s
par Scenario.node[16].nic.phy80211p timeTXToSleep 0s
attr unit s
par Scenario.node[16].nic.phy80211p timeSleepToRX 0s
attr unit s
par Scenario.node[16].nic.phy80211p timeSleepToTX 0s
attr unit s
par Scenario.node[16].nic.phy80211p initialRadioState 0
par Scenario.node[16].nic.phy80211p radioMinAtt 1
par Scenario.node[16].nic.phy80211p radioMaxAtt 0
par Scenario.node[16].nic.phy80211p nbRadioChannels 1
par Scenario.node[16].nic.phy80211p initialRadioChannel 0
par Scenario.node[16].nic.phy80211p ccaThreshold -65dBm
attr unit dBm
par Scenario.node[16].nic.phy80211p collectCollisionStatistics false
par Scenario.node[16].nic.phy80211p allowTxDuringRx false
scalar Scenario.node[16].nic.phy80211p busyTime 0.015356977777777
par Scenario.node[16].nic.mac1609_4 typename "\"org.car2x.veins.modules.mac.ieee80211p.Mac1609_4\""
par Scenario.node[16].nic.mac1609_4 notAffectedByHostState false
par Scenario.node[16].nic.mac1609_4 headerLength 0bit
attr unit bit
par Scenario.node[16].nic.mac1609_4 address "\"auto\""
par Scenario.node[16].nic.mac1609_4 useServiceChannel false
par Scenario.node[16].nic.mac1609_4 serviceChannel 1
par Scenario.node[16].nic.mac1609_4 bitrate 6000000bps
attr unit bps
par Scenario.node[16].nic.mac1609_4 syncOffset 0.0003s
attr unit s
par Scenario.node[16].nic.mac1609_4 txPower 20mW
attr unit mW
par Scenario.node[16].nic.mac1609_4 queueSize 0
par Scenario.node[16].nic.mac1609_4 dot11RTSThreshold 12000bit
attr unit bit
par Scenario.node[16].nic.mac1609_4 dot11ShortRetryLimit 7
par Scenario.node[16].nic.mac1609_4 dot11LongRetryLimit 4
par Scenario.node[16].nic.mac1609_4 ackLength 112bit
attr unit bit
par Scenario.node[16].nic.mac1609_4 useAcks false
par Scenario.node[16].nic.mac1609_4 frameErrorRate 0
par Scenario.node[16].nic.mac1609_4 ackErrorRate 0
scalar Scenario.node[16].nic.mac1609_4 ReceivedUnicastPackets 0
scalar Scenario.node[16].nic.mac1609_4 ReceivedBroadcasts 5664
scalar Scenario.node[16].nic.mac1609_4 SentPackets 451
scalar Scenario.node[16].nic.mac1609_4 SentAcknowledgements 0
scalar Scenario.node[16].nic.mac1609_4 RetriesExceeded 0
scalar Scenario.node[16].nic.mac1609_4 SNIRLostPackets 971
scalar Scenario.node[16].nic.mac1609_4 RXTXLostPackets 0
scalar Scenario.node[16].nic.mac1609_4 TotalLostPackets 971
scalar Scenario.node[16].nic.mac1609_4 DroppedPacketsInMac 0
scalar Scenario.node[16].nic.mac1609_4 TooLittleTime 0
scalar Scenario.node[16].nic.mac1609_4 TimesIntoBackoff 451
scalar Scenario.node[16].nic.mac1609_4 SlotsBackoff 680
scalar Scenario.node[16].nic.mac1609_4 NumInternalContention 0
scalar Scenario.node[16].nic.mac1609_4 totalBusyTime 0.728312758362
scalar Scenario.node[16].nic.mac1609_4 retriesExceeded:count 0
attr recordingmode count
attr source org_car2x_veins_modules_mac_sigRetriesExceeded
scalar Scenario.node[16].nic.mac1609_4 sentAcks:count 0
attr recordingmode count
attr source org_car2x_veins_modules_mac_sigSentAck
scalar Scenario.node[16].nic.mac1609_4 sentPackets:count 451
attr recordingmode count
attr source org_car2x_veins_modules_mac_sigSentPacket
scalar Scenario.node[16].nic.mac1609_4 collisions:count 0
attr recordingmode count
attr source org_car2x_veins_modules_mac_sigCollision
scalar Scenario.node[16].nic.mac1609_4 channelBusy:timeavg 0.016184727963599
attr recordingmode timeavg
attr source org_car2x_veins_modules_mac_sigChannelBusy
par Scenario.node[16].nic typename "\"org.car2x.veins.modules.nic.Nic80211p\""
par Scenario.node[16].nic connectionManagerName "\"connectionManager\""
par Scenario.node[16].veinsmobility typename "\"org.car2x.veins.modules.mobility.traci.TraCIMobility\""
par Scenario.node[16].veinsmobility notAffectedByHostState true
par Scenario.node[16].veinsmobility x 0
par Scenario.node[16].veinsmobility y 0
par Scenario.node[16].veinsmobility z 1.895
par Scenario.node[16].veinsmobility xOrientation 1
par Scenario.node[16].veinsmobility yOrientation 0
par Scenario.node[16].veinsmobility zOrientation 0
par Scenario.node[16].veinsmobility hostPositionOffset 0m
attr unit m
par Scenario.node[16].veinsmobility setHostSpeed false
par Scenario.node[16].veinsmobility accidentCount 0
par Scenario.node[16].veinsmobility accidentStart 59.5442s
attr unit s
par Scenario.node[16].veinsmobility accidentDuration "uniform(30s, 60s)"
attr unit s
par Scenario.node[16].veinsmobility accidentInterval "uniform(30s, 60s)"
attr unit s
scalar Scenario.node[16].veinsmobility startTime 16.1
scalar Scenario.node[16].veinsmobility totalTime 44.9
scalar Scenario.node[16].veinsmobility stopTime 61.1
scalar Scenario.node[16].veinsmobility minSpeed 0.25628130026674
scalar Scenario.node[16].veinsmobility maxSpeed 14.729686993527
scalar Scenario.node[16].veinsmobility totalDistance 420.98882806687
scalar Scenario.node[16].veinsmobility totalCO2Emission 152.781536277
par Scenario.node[16] typename "\"org.car2x.veins.nodes.Car\""
par Scenario.node[16] applType "\"TraCIDemo11p\""
par Scenario.node[16] nicType "\"Nic80211p\""
par Scenario.node[16] veinsmobilityType "\"org.car2x.veins.modules.mobility.traci.TraCIMobility\""
par Scenario.node[24].appl typename "\"org.car2x.veins.modules.application.traci.TraCIDemo11p\""
par Scenario.node[24].appl headerLength 80bit
attr unit bit
par Scenario.node[24].appl sendBeacons true
par Scenario.node[24].appl beaconLengthBits 256bit
attr unit bit
par Scenario.node[24].appl beaconUserPriority 7
par Scenario.node[24].appl beaconInterval 0.1s
attr unit s
par Scenario.node[24].appl dataLengthBits 1024bit
attr unit bit
par Scenario.node[24].appl dataOnSch false
par Scenario.node[24].appl dataUserPriority 7
par Scenario.node[24].appl avoidBeaconSynchronization true
par Scenario.node[24].appl sendWSA false
par Scenario.node[24].appl wsaLengthBits 250bit
attr unit bit
par Scenario.node[24].appl wsaInterval 1s
attr unit s
scalar Scenario.node[24].appl generatedWSMs 1
scalar Scenario.node[24].appl receivedWSMs 25
scalar Scenario.node[24].appl generatedBSMs 420
scalar Scenario.node[24].appl receivedBSMs 7508
scalar Scenario.node[24].appl generatedWSAs 0
scalar Scenario.node[24].appl receivedWSAs 0
par Scenario.node[24].nic.phy80211p typename "\"org.car2x.veins.modules.phy.PhyLayer80211p\""
par Scenario.node[24].nic.phy80211p recordStats false
par Scenario.node[24].nic.phy80211p usePropagationDelay true
par Scenario.node[24].nic.phy80211p noiseFloor -98dBm
attr unit dBm
par Scenario.node[24].nic.phy80211p useNoiseFloor true
par Scenario.node[24].nic.phy80211p antenna "<root>...</root> at content:1"
par Scenario.node[24].nic.phy80211p antennaOffsetX 0m
attr unit m
par Scenario.node[24].nic.phy80211p antennaOffsetY 0m
attr unit m
par Scenario.node[24].nic.phy80211p antennaOffsetZ 1.895m
attr unit m
par Scenario.node[24].nic.phy80211p antennaOffsetYaw 0rad
attr unit rad
par Scenario.node[24].nic.phy80211p analogueModels "<root>...</root> at /home/vagrant/spe-homework-project/Project/simulations//config_3.xml:2"
par Scenario.node[24].nic.phy80211p decider "<root>...</root> at /home/vagrant/spe-homework-project/Project/simulations//config_3.xml:2"
par Scenario.node[24].nic.phy80211p minPowerLevel -110dBm
attr unit dBm
par Scenario.node[24].nic.phy80211p timeRXToTX 0s
attr unit s
par Scenario.node[24].nic.phy80211p timeRXToSleep 0s
attr unit s
par Scenario.node[24].nic.phy80211p timeTXToRX 0s
attr unit s
par Scenario.node[24].nic.phy80211p timeTXToSleep 0s
attr unit s
par Scenario.node[24].nic.phy80211p timeSleepToRX 0s
attr unit s
par Scenario.node[24].nic.phy80211p timeSleepToTX 0s
attr unit s
par Scenario.node[24].nic.phy80211p initialRadioState 0
par Scenario.node[24].nic.phy80211p radioMinAtt 1
par Scenario.node[24].nic.phy80211p radioMaxAtt 0
par Scenario.node[24].nic.phy80211p nbRadioChannels 1
par Scenario.node[24].nic.phy80211p initialRadioChannel 0
par Scenario.node[24].nic.phy80211p ccaThreshold -65dBm
attr unit dBm
par Scenario.node[24].nic.phy80211p collectCollisionStatistics false
par Scenario.node[24].nic.phy80211p allowTxDuringRx false
scalar Scenario.node[24].nic.phy80211p busyTime 0.021215238095237
par Scenario.node[24].nic.mac1609_4 typename "\"org.car2x.veins.modules.mac.ieee80211p.Mac1609_4\""
par Scenario.node[24].nic.mac1609_4 notAffectedByHostState false
par Scenario.node[24].nic.mac1609_4 headerLength 0bit
attr unit bit
par Scenario.node[24].nic.mac1609_4 address "\"auto\""
par Scenario.node[24].nic.mac1609_4 useServiceChannel false
par Scenario.node[24].nic.mac1609_4 serviceChannel 1
par Scenario.node[24].nic.mac1609_4 bitrate 6000000bps
attr unit bps
par Scenario.node[24].nic.mac1609_4 syncOffset 0.0003s
attr unit s
par Scenario.node[24].nic.mac1609_4 txPower 20mW
attr unit mW
par Scenario.node[24].nic.mac1609_4 queueSize 0
par Scenario.node[24].nic.mac1609_4 dot11RTSThreshold 12000bit
attr unit bit
par Scenario.node[24].nic.mac1609_4 dot11ShortRetryLimit 7
par Scenario.node[24].nic.mac1609_4 dot11LongRetryLimit 4
par Scenario.node[24].nic.mac1609_4 ackLength 112bit
attr unit bit
par Scenario.node[24].nic.mac1609_4 useAcks false
par Scenario.node[24].nic.mac1609_4 frameErrorRate 0
par Scenario.node[24].nic.mac1609_4 ackErrorRate 0
scalar Scenario.node[24].nic.mac1609_4 ReceivedUnicastPackets 0
scalar Scenario.node[24].nic.mac1609_4 ReceivedBroadcasts 7533
scalar Scenario.node[24].nic.mac1609_4 SentPackets 421
scalar Scenario.node[24].nic.mac1609_4 SentAcknowledgements 0
scalar Scenario.node[24].nic.mac1609_4 RetriesExceeded 0
scalar Scenario.node[24].nic.mac1609_4 SNIRLostPackets 999
scalar Scenario.node[24].nic.mac1609_4 RXTXLostPackets 0
scalar Scenario.node[24].nic.mac1609_4 TotalLostPackets 999
scalar Scenario.node[24].nic.mac1609_4 DroppedPacketsInMac 0
scalar Scenario.node[24].nic.mac1609_4 TooLittleTime 0
scalar Scenario.node[24].nic.mac1609_4 TimesIntoBackoff 524
scalar Scenario.node[24].nic.mac1609_4 SlotsBackoff 784
scalar Scenario.node[24].nic.mac1609_4 NumInternalContention 0
scalar Scenario.node[24].nic.mac1609_4 totalBusyTime 0.927368116444
scalar Scenario.node[24].nic.mac1609_4 retriesExceeded:count 0
attr recordingmode count
attr source org_car2x_veins_modules_mac_sigRetriesExceeded
scalar Scenario.node[24].nic.mac1609_4 sentAcks:count 0
attr recordingmode count
attr source org_car2x_veins_modules_mac_sigSentAck
scalar Scenario.node[24].nic.mac1609_4 sentPackets:count 421
attr recordingmode count
attr source org_car2x_veins_modules_mac_sigSentPacket
scalar Scenario.node[24].nic.mac1609_4 collisions:count 0
attr recordingmode count
attr source org_car2x_veins_modules_mac_sigCollision
scalar Scenario.node[24].nic.mac1609_4 channelBusy:timeavg 0.022080193248666
attr recordingmode timeavg
attr source org_car2x_veins_modules_mac_sigChannelBusy
par Scenario.node[24].nic typename "\"org.car2x.veins.modules.nic.Nic80211p\""
par Scenario.node[24].nic connectionManagerName "\"connectionManager\""
par Scenario.node[24].veinsmobility typename "\"org.car2x.veins.modules.mobility.traci.TraCIMobility\""
par Scenario.node[24].veinsmobility notAffectedByHostState true
par Scenario.node[24].veinsmobility x 0
par Scenario.node[24].veinsmobility y 0
par Scenario.node[24].veinsmobility z 1.895
par Scenario.node[24].veinsmobility xOrientation 1
par Scenario.node[24].veinsmobility yOrientation 0
par Scenario.node[24].veinsmobility zOrientation 0
par Scenario.node[24].veinsmobility hostPositionOffset 0m
attr unit m
par Scenario.node[24].veinsmobility setHostSpeed false
par Scenario.node[24].veinsmobility accidentCount 0
par Scenario.node[24].veinsmobility accidentStart 31.215s
attr unit s
par Scenario.node[24].veinsmobility accidentDuration "uniform(30s, 60s)"
attr unit s
par Scenario.node[24].veinsmobility accidentInterval "uniform(30s, 60s)"
attr unit s
scalar Scenario.node[24].veinsmobility startTime 25.1
scalar Scenario.node[24].veinsmobility totalTime 41.9
scalar Scenario.node[24].veinsmobility stopTime 67.1
scalar Scenario.node[24].veinsmobility minSpeed 0.25398141692346
scalar Scenario.node[24].veinsmobility maxSpeed 11.879789140409
scalar Scenario.node[24].veinsmobility totalDistance 420.2236456232
scalar Scenario.node[24].veinsmobility totalCO2Emission 111.52770098369
par Scenario.node[24] typename "\"org.car2x.veins.nodes.Car\""
par Scenario.node[24] applType "\"TraCIDemo11p\""
par Scenario.node[24] nicType "\"Nic80211p\""
par Scenario.node[24] veinsmobilityType "\"org.car2x.veins.modules.mobility.traci.TraCIMobility\""
par Scenario.node[3].appl typename "\"org.car2x.veins.modules.application.traci.TraCIDemo11p\""
par Scenario.node[3].appl headerLength 80bit
attr unit bit
par Scenario.node[3].appl sendBeacons true
par Scenario.node[3].appl beaconLengthBits 256bit
attr unit bit
par Scenario.node[3].appl beaconUserPriority 7
par Scenario.node[3].appl beaconInterval 0.1s
attr unit s
par Scenario.node[3].appl dataLengthBits 1024bit
attr unit bit
par Scenario.node[3].appl dataOnSch false
par Scenario.node[3].appl dataUserPriority 7
par Scenario.node[3].appl avoidBeaconSynchronization true
par Scenario.node[3].appl sendWSA false
par Scenario.node[3].appl wsaLengthBits 250bit
attr unit bit
par Scenario.node[3].appl wsaInterval 1s
attr unit s
scalar Scenario.node[3].appl generatedWSMs 1
scalar Scenario.node[3].appl receivedWSMs 13
scalar Scenario.node[3].appl generatedBSMs 643
scalar Scenario.node[3].appl receivedBSMs 5409
scalar Scenario.node[3].appl generatedWSAs 0
scalar Scenario.node[3].appl receivedWSAs 0
par Scenario.node[3].nic.phy80211p typename "\"org.car2x.veins.modules.phy.PhyLayer80211p\""
par Scenario.node[3].nic.phy80211p recordStats false
par Scenario.node[3].nic.phy80211p usePropagationDelay true
par Scenario.node[3].nic.phy80211p noiseFloor -98dBm
attr unit dBm
par Scenario.node[3].nic.phy80211p useNoiseFloor true
par Scenario.node[3].nic.phy80211p antenna "<root>...</root> at content:1"
par Scenario.node[3].nic.phy80211p antennaOffsetX 0m
attr unit m
par Scenario.node[3].nic.phy80211p antennaOffsetY 0m
attr unit m
par Scenario.node[3].nic.phy80211p antennaOffsetZ 1.895m
attr unit m
par Scenario.node[3].nic.phy80211p antennaOffsetYaw 0rad
attr unit rad
par Scenario.node[3].nic.phy80211p analogueModels "<root>...</root> at /home/vagrant/spe-homework-project/Project/simulations//config_3.xml:2"
par Scenario.node[3].nic.phy80211p decider "<root>...</root> at /home/vagrant/spe-homework-project/Project/simulations//config_3.xml:2"
par Scenario.node[3].nic.phy80211p minPowerLevel -110dBm
attr unit dBm
par Scenario.node[3].nic.phy80211p timeRXToTX 0s
attr unit s
par Scenario.node[3].nic.phy80211p timeRXToSleep 0s
attr unit s
par Scenario.node[3].nic.phy80211p timeTXToRX 0s
attr unit s
par Scenario.node[3].nic.phy80211p timeTXToSleep 0s
attr unit s
par Scenario.node[3].nic.phy80211p timeSleepToRX 0s
attr unit s
par Scenario.node[3].nic.phy80211p timeSleepToTX 0s
attr unit s
par Scenario.node[3].nic.phy80211p initialRadioState 0
par Scenario.node[3].nic.phy80211p radioMinAtt 1
par Scenario.node[3].nic.phy80211p radioMaxAtt 0
par Scenario.node[3].nic.phy80211p nbRadioChannels 1
par Scenario.node[3].nic.phy80211p initialRadioChannel 0
par Scenario.node[3].nic.phy80211p ccaThreshold -65dBm
attr unit dBm
par Scenario.node[3].nic.phy80211p collectCollisionStatistics false
par Scenario.node[3].nic.phy80211p allowTxDuringRx false
scalar Scenario.node[3].nic.phy80211p busyTime 0.010283919129082
par Scenario.node[3].nic.mac1609_4 typename "\"org.car2x.veins.modules.mac.ieee80211p.Mac1609_4\""
par Scenario.node[3].nic.mac1609_4 notAffectedByHostState false
par Scenario.node[3].nic.mac1609_4 headerLength 0bit
attr unit bit
par Scenario.node[3].nic.mac1609_4 address "\"auto\""
par Scenario.node[3].nic.mac1609_4 useServiceChannel false
par Scenario.node[3].nic.mac1609_4 serviceChannel 1
par Scenario.node[3].nic.mac1609_4 bitrate 6000000bps
attr unit bps
par Scenario.node[3].nic.mac1609_4 syncOffset 0.0003s
attr unit s
par Scenario.node[3].nic.mac1609_4 txPower 20mW
attr unit mW
par Scenario.node[3].nic.mac1609_4 queueSize 0
par Scenario.node[3].nic.mac1609_4 dot11RTSThreshold 12000bit
attr unit bit
par Scenario.node[3].nic.mac1609_4 dot11ShortRetryLimit 7
par Scenario.node[3].nic.mac1609_4 dot11LongRetryLimit 4
par Scenario.node[3].nic.mac1609_4 ackLength 112bit
attr unit bit
par Scenario.node[3].nic.mac1609_4 useAcks false
par Scenario.node[3].nic.mac1609_4 frameErrorRate 0
par Scenario.node[3].nic.mac1609_4 ackErrorRate 0
scalar Scenario.node[3].nic.mac1609_4 ReceivedUnicastPackets 0
scalar Scenario.node[3].nic.mac1609_4 ReceivedBroadcasts 5422
scalar Scenario.node[3].nic.mac1609_4 SentPackets 644
scalar Scenario.node[3].nic.mac1609_4 SentAcknowledgements 0
scalar Scenario.node[3].nic.mac1609_4 RetriesExceeded 0
scalar Scenario.node[3].nic.mac1609_4 SNIRLostPackets 919
scalar Scenario.node[3].nic.mac1609_4 RXTXLostPackets 0
scalar Scenario.node[3].nic.mac1609_4 TotalLostPackets 919
scalar Scenario.node[3].nic.mac1609_4 DroppedPacketsInMac 0
scalar Scenario.node[3].nic.mac1609_4 TooLittleTime 0
scalar Scenario.node[3].nic.mac1609_4 TimesIntoBackoff 644
scalar Scenario.node[3].nic.mac1609_4 SlotsBackoff 937
scalar Scenario.node[3].nic.mac1609_4 NumInternalContention 0
scalar Scenario.node[3].nic.mac1609_4 totalBusyTime 0.721308
scalar Scenario.node[3].nic.mac1609_4 retriesExceeded:count 0
attr recordingmode count
attr source org_car2x_veins_modules_mac_sigRetriesExceeded
scalar Scenario.node[3].nic.mac1609_4 sentAcks:count 0
attr recordingmode count
attr source org_car2x_veins_modules_mac_sigSentAck
scalar Scenario.node[3].nic.mac1609_4 sentPackets:count 644
attr recordingmode count
attr source org_car2x_veins_modules_mac_sigSentPacket
scalar Scenario.node[3].nic.mac1609_4 collisions:count 0
attr recordingmode count
attr source org_car2x_veins_modules_mac_sigCollision
scalar Scenario.node[3].nic.mac1609_4 channelBusy:timeavg 0.011217853810264
attr recordingmode timeavg
attr source org_car2x_veins_modules_mac_sigChannelBusy
par Scenario.node[3].nic typename "\"org.car2x.veins.modules.nic.Nic80211p\""
par Scenario.node[3].nic connectionManagerName "\"connectionManager\""
par Scenario.node[3].veinsmobility typename "\"org.car2x.veins.modules.mobility.traci.TraCIMobility\""
par Scenario.node[3].veinsmobility notAffectedByHostState true
par Scenario.node[3].veinsmobility x 0
par Scenario.node[3].veinsmobility y 0
par Scenario.node[3].veinsmobility z 1.895
par Scenario.node[3].veinsmobility xOrientation 1
par Scenario.node[3].veinsmobility yOrientation 0
par Scenario.node[3].veinsmobility zOrientation 0
par Scenario.node[3].veinsmobility hostPositionOffset 0m
attr unit m
par Scenario.node[3].veinsmobility setHostSpeed false
par Scenario.node[3].veinsmobility accidentCount 0
par Scenario.node[3].veinsmobility accidentStart 55.2489s
attr unit s
par Scenario.node[3].veinsmobility accidentDuration "uniform(30s, 60s)"
attr unit s
par Scenario.node[3].veinsmobility accidentInterval "uniform(30s, 60s)"
attr unit s
scalar Scenario.node[3].veinsmobility startTime 3.1
scalar Scenario.node[3].veinsmobility totalTime 64.2
scalar Scenario.node[3].veinsmobility stopTime 67.4
scalar Scenario.node[3].veinsmobility minSpeed 0.25470006867917
scalar Scenario.node[3].veinsmobility maxSpeed 14.273312568642
scalar Scenario.node[3].veinsmobility totalDistance 736.67663497276
scalar Scenario.node[3].veinsmobility totalCO2Emission 201.91339381232
par Scenario.node[3] typename "\"org.car2x.veins.nodes.Car\""
par Scenario.node[3] applType "\"TraCIDemo11p\""
par Scenario.node[3] nicType "\"Nic80211p\""
par Scenario.node[3] veinsmobilityType "\"org.car2x.veins.modules.mobility.traci.TraCIMobility\""
par Scenario.node[42].appl typename "\"org.car2x.veins.modules.application.traci.TraCIDemo11p\""
par Scenario.node[42].appl headerLength 80bit
attr unit bit
par Scenario.node[42].appl sendBeacons true
par Scenario.node[42].appl beaconLengthBits 256bit
attr unit bit
par Scenario.node[42].appl beaconUserPriority 7
par Scenario.node[42].appl beaconInterval 0.1s
attr unit s
par Scenario.node[42].appl dataLengthBits 1024bit
attr unit bit
par Scenario.node[42].appl dataOnSch false
par Scenario.node[42].appl dataUserPriority 7
par Scenario.node[42].appl avoidBeaconSynchronization true
par Scenario.node[42].appl sendWSA false
par Scenario.node[42].appl wsaLengthBits 250bit
attr unit bit
par Scenario.node[42].appl wsaInterval 1s
attr unit s
scalar Scenario.node[42].appl generatedWSMs 0
scalar Scenario.node[42].appl receivedWSMs 1
scalar Scenario.node[42].appl generatedBSMs 244
scalar Scenario.node[42].appl receivedBSMs 3112
scalar Scenario.node[42].appl generatedWSAs 0
scalar Scenario.node[42].appl receivedWSAs 0
par Scenario.node[42].nic.phy80211p typename "\"org.car2x.veins.modules.phy.PhyLayer80211p\""
par Scenario.node[42].nic.phy80211p recordStats false
par Scenario.node[42].nic.phy80211p usePropagationDelay true
par Scenario.node[42].nic.phy80211p noiseFloor -98dBm
attr unit dBm
par Scenario.node[42].nic.phy80211p useNoiseFloor true
par Scenario.node[42].nic.phy80211p antenna "<root>...</root> at content:1"
par Scenario.node[42].nic.phy80211p antennaOffsetX 0m
attr unit m
par Scenario.node[42].nic.phy80211p antennaOffsetY 0m
attr unit m
par Scenario.node[42].nic.phy80211p antennaOffsetZ 1.895m
attr unit m
par Scenario.node[42].nic.phy80211p antennaOffsetYaw 0rad
attr unit rad
par Scenario.node[42].nic.phy80211p analogueModels "<root>...</root> at /home/vagrant/spe-homework-project/Project/simulations//config_3.xml:2"
par Scenario.node[42].nic.phy80211p decider "<root>...</root> at /home/vagrant/spe-homework-project/Project/simulations//config_3.xml:2"
par Scenario.node[42].nic.phy80211p minPowerLevel -110dBm
attr unit dBm
par Scenario.node[42].nic.phy80211p timeRXToTX 0s
attr unit s
par Scenario.node[42].nic.phy80211p timeRXToSleep 0s
attr unit s
par Scenario.node[42].nic.phy80211p timeTXToRX 0s
attr unit s
par Scenario.node[42].nic.phy80211p timeTXToSleep 0s
attr unit s
par Scenario.node[42].nic.phy80211p timeSleepToRX 0s
attr unit s
par Scenario.node[42].nic.phy80211p timeSleepToTX 0s
attr unit s
par Scenario.node[42].nic.phy80211p initialRadioState 0
par Scenario.node[42].nic.phy80211p radioMinAtt 1
par Scenario.node[42].nic.phy80211p radioMaxAtt 0
par Scenario.node[42].nic.phy80211p nbRadioChannels 1
par Scenario.node[42].nic.phy80211p initialRadioChannel 0
par Scenario.node[42].nic.phy80211p ccaThreshold -65dBm
attr unit dBm
par Scenario.node[42].nic.phy80211p collectCollisionStatistics false
par Scenario.node[42].nic.phy80211p allowTxDuringRx false
scalar Scenario.node[42].nic.phy80211p busyTime 0.015989836065573
par Scenario.node[42].nic.mac1609_4 typename "\"org.car2x.veins.modules.mac.ieee80211p.Mac1609_4\""
par Scenario.node[42].nic.mac1609_4 notAffectedByHostState false
par Scenario.node[42].nic.mac1609_4 headerLength 0bit
attr unit bit
par Scenario.node[42].nic.mac1609_4 address "\"auto\""
par Scenario.node[42].nic.mac1609_4 useServiceChannel false
par Scenario.node[42].nic.mac1609_4 serviceChannel 1
par Scenario.node[42].nic.mac1609_4 bitrate 6000000bps
attr unit bps
par Scenario.node[42].nic.mac1609_4 syncOffset 0.0003s
attr unit s
par Scenario.node[42].nic.mac1609_4 txPower 20mW
attr unit mW
par Scenario.node[42].nic.mac1609_4 queueSize 0
par Scenario.node[42].nic.mac1609_4 dot11RTSThreshold 12000bit
attr unit bit
par Scenario.node[42].nic.mac1609_4 dot11ShortRetryLimit 7
par Scenario.node[42].nic.mac1609_4 dot11LongRetryLimit 4
par Scenario.node[42].nic.mac1609_4 ackLength 112bit
attr unit bit
par Scenario.node[42].nic.mac1609_4 useAcks false
par Scenario.node[42].nic.mac1609_4 frameErrorRate 0
par Scenario.node[42].nic.mac1609_4 ackErrorRate 0
scalar Scenario.node[42].nic.mac1609_4 ReceivedUnicastPackets 0
scalar Scenario.node[42].nic.mac1609_4 ReceivedBroadcasts 3113
scalar Scenario.node[42].nic.mac1609_4 SentPackets 244
scalar Scenario.node[42].nic.mac1609_4 SentAcknowledgements 0
scalar Scenario.node[42].nic.mac1609_4 RetriesExceeded 0
scalar Scenario.node[42].nic.mac1609_4 SNIRLostPackets 636
scalar Scenario.node[42].nic.mac1609_4 RXTXLostPackets 0
scalar Scenario.node[42].nic.mac1609_4 TotalLostPackets 636
scalar Scenario.node[42].nic.mac1609_4 DroppedPacketsInMac 0
scalar Scenario.node[42].nic.mac1609_4 TooLittleTime 0
scalar Scenario.node[42].nic.mac1609_4 TimesIntoBackoff 244
scalar Scenario.node[42].nic.mac1609_4 SlotsBackoff 384
scalar Scenario.node[42].nic.mac1609_4 NumInternalContention 0
scalar Scenario.node[42].nic.mac1609_4 totalBusyTime 0.408908
scalar Scenario.node[42].nic.mac1609_4 retriesExceeded:count 0
attr recordingmode count
attr source org_car2x_veins_modules_mac_sigRetriesExceeded
scalar Scenario.node[42].nic.mac1609_4 sentAcks:count 0
attr recordingmode count
attr source org_car2x_veins_modules_mac_sigSentAck
scalar Scenario.node[42].nic.mac1609_4 sentPackets:count 244
attr recordingmode count
attr source org_car2x_veins_modules_mac_sigSentPacket
scalar Scenario.node[42].nic.mac1609_4 collisions:count 0
attr recordingmode count
attr source org_car2x_veins_modules_mac_sigCollision
scalar Scenario.node[42].nic.mac1609_4 channelBusy:timeavg 0.016758524590163
attr recordingmode timeavg
[...]
attr unit dBm
par Scenario.node[95].nic.phy80211p timeRXToTX 0s
attr unit s
par Scenario.node[95].nic.phy80211p timeRXToSleep 0s
attr unit s
par Scenario.node[95].nic.phy80211p timeTXToRX 0s
attr unit s
par Scenario.node[95].nic.phy80211p timeTXToSleep 0s
attr unit s
par Scenario.node[95].nic.phy80211p timeSleepToRX 0s
attr unit s
par Scenario.node[95].nic.phy80211p timeSleepToTX 0s
attr unit s
par Scenario.node[95].nic.phy80211p initialRadioState 0
par Scenario.node[95].nic.phy80211p radioMinAtt 1
par Scenario.node[95].nic.phy80211p radioMaxAtt 0
par Scenario.node[95].nic.phy80211p nbRadioChannels 1
par Scenario.node[95].nic.phy80211p initialRadioChannel 0
par Scenario.node[95].nic.phy80211p ccaThreshold -65dBm
attr unit dBm
par Scenario.node[95].nic.phy80211p collectCollisionStatistics false
par Scenario.node[95].nic.phy80211p allowTxDuringRx false
scalar Scenario.node[95].nic.phy80211p busyTime 0.03005935483871
par Scenario.node[95].nic.mac1609_4 typename "\"org.car2x.veins.modules.mac.ieee80211p.Mac1609_4\""
par Scenario.node[95].nic.mac1609_4 notAffectedByHostState false
par Scenario.node[95].nic.mac1609_4 headerLength 0bit
attr unit bit
par Scenario.node[95].nic.mac1609_4 address "\"auto\""
par Scenario.node[95].nic.mac1609_4 useServiceChannel false
par Scenario.node[95].nic.mac1609_4 serviceChannel 1
par Scenario.node[95].nic.mac1609_4 bitrate 6000000bps
attr unit bps
par Scenario.node[95].nic.mac1609_4 syncOffset 0.0003s
attr unit s
par Scenario.node[95].nic.mac1609_4 txPower 20mW
attr unit mW
par Scenario.node[95].nic.mac1609_4 queueSize 0
par Scenario.node[95].nic.mac1609_4 dot11RTSThreshold 12000bit
attr unit bit
par Scenario.node[95].nic.mac1609_4 dot11ShortRetryLimit 7
par Scenario.node[95].nic.mac1609_4 dot11LongRetryLimit 4
par Scenario.node[95].nic.mac1609_4 ackLength 112bit
attr unit bit
par Scenario.node[95].nic.mac1609_4 useAcks false
par Scenario.node[95].nic.mac1609_4 frameErrorRate 0
par Scenario.node[95].nic.mac1609_4 ackErrorRate 0
scalar Scenario.node[95].nic.mac1609_4 ReceivedUnicastPackets 0
scalar Scenario.node[95].nic.mac1609_4 ReceivedBroadcasts 839
scalar Scenario.node[95].nic.mac1609_4 SentPackets 31
scalar Scenario.node[95].nic.mac1609_4 SentAcknowledgements 0
scalar Scenario.node[95].nic.mac1609_4 RetriesExceeded 0
scalar Scenario.node[95].nic.mac1609_4 SNIRLostPackets 57
scalar Scenario.node[95].nic.mac1609_4 RXTXLostPackets 0
scalar Scenario.node[95].nic.mac1609_4 TotalLostPackets 57
scalar Scenario.node[95].nic.mac1609_4 DroppedPacketsInMac 0
scalar Scenario.node[95].nic.mac1609_4 TooLittleTime 0
scalar Scenario.node[95].nic.mac1609_4 TimesIntoBackoff 31
scalar Scenario.node[95].nic.mac1609_4 SlotsBackoff 54
scalar Scenario.node[95].nic.mac1609_4 NumInternalContention 0
scalar Scenario.node[95].nic.mac1609_4 totalBusyTime 0.093007
scalar Scenario.node[95].nic.mac1609_4 retriesExceeded:count 0
attr recordingmode count
attr source org_car2x_veins_modules_mac_sigRetriesExceeded
scalar Scenario.node[95].nic.mac1609_4 sentAcks:count 0
attr recordingmode count
attr source org_car2x_veins_modules_mac_sigSentAck
scalar Scenario.node[95].nic.mac1609_4 sentPackets:count 31
attr recordingmode count
attr source org_car2x_veins_modules_mac_sigSentPacket
scalar Scenario.node[95].nic.mac1609_4 collisions:count 0
attr recordingmode count
attr source org_car2x_veins_modules_mac_sigCollision
scalar Scenario.node[95].nic.mac1609_4 channelBusy:timeavg 0.030002258064517
attr recordingmode timeavg
attr source org_car2x_veins_modules_mac_sigChannelBusy
par Scenario.node[95].nic typename "\"org.car2x.veins.modules.nic.Nic80211p\""
par Scenario.node[95].nic connectionManagerName "\"connectionManager\""
par Scenario.node[95].veinsmobility typename "\"org.car2x.veins.modules.mobility.traci.TraCIMobility\""
par Scenario.node[95].veinsmobility notAffectedByHostState true
par Scenario.node[95].veinsmobility x 0
par Scenario.node[95].veinsmobility y 0
par Scenario.node[95].veinsmobility z 1.895
par Scenario.node[95].veinsmobility xOrientation 1
par Scenario.node[95].veinsmobility yOrientation 0
par Scenario.node[95].veinsmobility zOrientation 0
par Scenario.node[95].veinsmobility hostPositionOffset 0m
attr unit m
par Scenario.node[95].veinsmobility setHostSpeed false
par Scenario.node[95].veinsmobility accidentCount 0
par Scenario.node[95].veinsmobility accidentStart 41.1818s
attr unit s
par Scenario.node[95].veinsmobility accidentDuration "uniform(30s, 60s)"
attr unit s
par Scenario.node[95].veinsmobility accidentInterval "uniform(30s, 60s)"
attr unit s
scalar Scenario.node[95].veinsmobility startTime 96.9
scalar Scenario.node[95].veinsmobility totalTime 3.1
scalar Scenario.node[95].veinsmobility stopTime 100
scalar Scenario.node[95].veinsmobility minSpeed 0.25186413411773
scalar Scenario.node[95].veinsmobility maxSpeed 6.4206615077645
scalar Scenario.node[95].veinsmobility totalDistance 10.717190902608
scalar Scenario.node[95].veinsmobility totalCO2Emission 8.9865326690601
par Scenario.node[95] typename "\"org.car2x.veins.nodes.Car\""
par Scenario.node[95] applType "\"TraCIDemo11p\""
par Scenario.node[95] nicType "\"Nic80211p\""
par Scenario.node[95] veinsmobilityType "\"org.car2x.veins.modules.mobility.traci.TraCIMobility\""
par Scenario.node[96].appl typename "\"org.car2x.veins.modules.application.traci.TraCIDemo11p\""
par Scenario.node[96].appl headerLength 80bit
attr unit bit
par Scenario.node[96].appl sendBeacons true
par Scenario.node[96].appl beaconLengthBits 256bit
attr unit bit
par Scenario.node[96].appl beaconUserPriority 7
par Scenario.node[96].appl beaconInterval 0.1s
attr unit s
par Scenario.node[96].appl dataLengthBits 1024bit
attr unit bit
par Scenario.node[96].appl dataOnSch false
par Scenario.node[96].appl dataUserPriority 7
par Scenario.node[96].appl avoidBeaconSynchronization true
par Scenario.node[96].appl sendWSA false
par Scenario.node[96].appl wsaLengthBits 250bit
attr unit bit
par Scenario.node[96].appl wsaInterval 1s
attr unit s
scalar Scenario.node[96].appl generatedWSMs 0
scalar Scenario.node[96].appl receivedWSMs 0
scalar Scenario.node[96].appl generatedBSMs 23
scalar Scenario.node[96].appl receivedBSMs 873
scalar Scenario.node[96].appl generatedWSAs 0
scalar Scenario.node[96].appl receivedWSAs 0
par Scenario.node[96].nic.phy80211p typename "\"org.car2x.veins.modules.phy.PhyLayer80211p\""
par Scenario.node[96].nic.phy80211p recordStats false
par Scenario.node[96].nic.phy80211p usePropagationDelay true
par Scenario.node[96].nic.phy80211p noiseFloor -98dBm
attr unit dBm
par Scenario.node[96].nic.phy80211p useNoiseFloor true
par Scenario.node[96].nic.phy80211p antenna "<root>...</root> at content:1"
par Scenario.node[96].nic.phy80211p antennaOffsetX 0m
attr unit m
par Scenario.node[96].nic.phy80211p antennaOffsetY 0m
attr unit m
par Scenario.node[96].nic.phy80211p antennaOffsetZ 1.895m
attr unit m
par Scenario.node[96].nic.phy80211p antennaOffsetYaw 0rad
attr unit rad
par Scenario.node[96].nic.phy80211p analogueModels "<root>...</root> at /home/vagrant/spe-homework-project/Project/simulations//config_3.xml:2"
par Scenario.node[96].nic.phy80211p decider "<root>...</root> at /home/vagrant/spe-homework-project/Project/simulations//config_3.xml:2"
par Scenario.node[96].nic.phy80211p minPowerLevel -110dBm
attr unit dBm
par Scenario.node[96].nic.phy80211p timeRXToTX 0s
attr unit s
par Scenario.node[96].nic.phy80211p timeRXToSleep 0s
attr unit s
par Scenario.node[96].nic.phy80211p timeTXToRX 0s
attr unit s
par Scenario.node[96].nic.phy80211p timeTXToSleep 0s
attr unit s
par Scenario.node[96].nic.phy80211p timeSleepToRX 0s
attr unit s
par Scenario.node[96].nic.phy80211p timeSleepToTX 0s
attr unit s
par Scenario.node[96].nic.phy80211p initialRadioState 0
par Scenario.node[96].nic.phy80211p radioMinAtt 1
par Scenario.node[96].nic.phy80211p radioMaxAtt 0
par Scenario.node[96].nic.phy80211p nbRadioChannels 1
par Scenario.node[96].nic.phy80211p initialRadioChannel 0
par Scenario.node[96].nic.phy80211p ccaThreshold -65dBm
attr unit dBm
par Scenario.node[96].nic.phy80211p collectCollisionStatistics false
par Scenario.node[96].nic.phy80211p allowTxDuringRx false
scalar Scenario.node[96].nic.phy80211p busyTime 0.046664347826088
par Scenario.node[96].nic.mac1609_4 typename "\"org.car2x.veins.modules.mac.ieee80211p.Mac1609_4\""
par Scenario.node[96].nic.mac1609_4 notAffectedByHostState false
par Scenario.node[96].nic.mac1609_4 headerLength 0bit
attr unit bit
par Scenario.node[96].nic.mac1609_4 address "\"auto\""
par Scenario.node[96].nic.mac1609_4 useServiceChannel false
par Scenario.node[96].nic.mac1609_4 serviceChannel 1
par Scenario.node[96].nic.mac1609_4 bitrate 6000000bps
attr unit bps
par Scenario.node[96].nic.mac1609_4 syncOffset 0.0003s
attr unit s
par Scenario.node[96].nic.mac1609_4 txPower 20mW
attr unit mW
par Scenario.node[96].nic.mac1609_4 queueSize 0
par Scenario.node[96].nic.mac1609_4 dot11RTSThreshold 12000bit
attr unit bit
par Scenario.node[96].nic.mac1609_4 dot11ShortRetryLimit 7
par Scenario.node[96].nic.mac1609_4 dot11LongRetryLimit 4
par Scenario.node[96].nic.mac1609_4 ackLength 112bit
attr unit bit
par Scenario.node[96].nic.mac1609_4 useAcks false
par Scenario.node[96].nic.mac1609_4 frameErrorRate 0
par Scenario.node[96].nic.mac1609_4 ackErrorRate 0
scalar Scenario.node[96].nic.mac1609_4 ReceivedUnicastPackets 0
scalar Scenario.node[96].nic.mac1609_4 ReceivedBroadcasts 873
scalar Scenario.node[96].nic.mac1609_4 SentPackets 23
scalar Scenario.node[96].nic.mac1609_4 SentAcknowledgements 0
scalar Scenario.node[96].nic.mac1609_4 RetriesExceeded 0
scalar Scenario.node[96].nic.mac1609_4 SNIRLostPackets 159
scalar Scenario.node[96].nic.mac1609_4 RXTXLostPackets 8
scalar Scenario.node[96].nic.mac1609_4 TotalLostPackets 167
scalar Scenario.node[96].nic.mac1609_4 DroppedPacketsInMac 0
scalar Scenario.node[96].nic.mac1609_4 TooLittleTime 0
scalar Scenario.node[96].nic.mac1609_4 TimesIntoBackoff 32
scalar Scenario.node[96].nic.mac1609_4 SlotsBackoff 52
scalar Scenario.node[96].nic.mac1609_4 NumInternalContention 0
scalar Scenario.node[96].nic.mac1609_4 totalBusyTime 0.106415
scalar Scenario.node[96].nic.mac1609_4 retriesExceeded:count 0
attr recordingmode count
attr source org_car2x_veins_modules_mac_sigRetriesExceeded
scalar Scenario.node[96].nic.mac1609_4 sentAcks:count 0
attr recordingmode count
attr source org_car2x_veins_modules_mac_sigSentAck
scalar Scenario.node[96].nic.mac1609_4 sentPackets:count 23
attr recordingmode count
attr source org_car2x_veins_modules_mac_sigSentPacket
scalar Scenario.node[96].nic.mac1609_4 collisions:count 0
attr recordingmode count
attr source org_car2x_veins_modules_mac_sigCollision
scalar Scenario.node[96].nic.mac1609_4 channelBusy:timeavg 0.046267391304349
attr recordingmode timeavg
attr source org_car2x_veins_modules_mac_sigChannelBusy
par Scenario.node[96].nic typename "\"org.car2x.veins.modules.nic.Nic80211p\""
par Scenario.node[96].nic connectionManagerName "\"connectionManager\""
par Scenario.node[96].veinsmobility typename "\"org.car2x.veins.modules.mobility.traci.TraCIMobility\""
par Scenario.node[96].veinsmobility notAffectedByHostState true
par Scenario.node[96].veinsmobility x 0
par Scenario.node[96].veinsmobility y 0
par Scenario.node[96].veinsmobility z 1.895
par Scenario.node[96].veinsmobility xOrientation 1
par Scenario.node[96].veinsmobility yOrientation 0
par Scenario.node[96].veinsmobility zOrientation 0
par Scenario.node[96].veinsmobility hostPositionOffset 0m
attr unit m
par Scenario.node[96].veinsmobility setHostSpeed false
par Scenario.node[96].veinsmobility accidentCount 0
par Scenario.node[96].veinsmobility accidentStart 31.9387s
attr unit s
par Scenario.node[96].veinsmobility accidentDuration "uniform(30s, 60s)"
attr unit s
par Scenario.node[96].veinsmobility accidentInterval "uniform(30s, 60s)"
attr unit s
scalar Scenario.node[96].veinsmobility startTime 97.7
scalar Scenario.node[96].veinsmobility totalTime 2.3
scalar Scenario.node[96].veinsmobility stopTime 100
scalar Scenario.node[96].veinsmobility minSpeed 0.25133917349135
scalar Scenario.node[96].veinsmobility maxSpeed 4.6025111277478
scalar Scenario.node[96].veinsmobility totalDistance 5.8552848983674
scalar Scenario.node[96].veinsmobility totalCO2Emission 5.3829670035803
par Scenario.node[96] typename "\"org.car2x.veins.nodes.Car\""
par Scenario.node[96] applType "\"TraCIDemo11p\""
par Scenario.node[96] nicType "\"Nic80211p\""
par Scenario.node[96] veinsmobilityType "\"org.car2x.veins.modules.mobility.traci.TraCIMobility\""
par Scenario.node[97].appl typename "\"org.car2x.veins.modules.application.traci.TraCIDemo11p\""
par Scenario.node[97].appl headerLength 80bit
attr unit bit
par Scenario.node[97].appl sendBeacons true
par Scenario.node[97].appl beaconLengthBits 256bit
attr unit bit
par Scenario.node[97].appl beaconUserPriority 7
par Scenario.node[97].appl beaconInterval 0.1s
attr unit s
par Scenario.node[97].appl dataLengthBits 1024bit
attr unit bit
par Scenario.node[97].appl dataOnSch false
par Scenario.node[97].appl dataUserPriority 7
par Scenario.node[97].appl avoidBeaconSynchronization true
par Scenario.node[97].appl sendWSA false
par Scenario.node[97].appl wsaLengthBits 250bit
attr unit bit
par Scenario.node[97].appl wsaInterval 1s
attr unit s
scalar Scenario.node[97].appl generatedWSMs 0
scalar Scenario.node[97].appl receivedWSMs 0
scalar Scenario.node[97].appl generatedBSMs 5
scalar Scenario.node[97].appl receivedBSMs 194
scalar Scenario.node[97].appl generatedWSAs 0
scalar Scenario.node[97].appl receivedWSAs 0
par Scenario.node[97].nic.phy80211p typename "\"org.car2x.veins.modules.phy.PhyLayer80211p\""
par Scenario.node[97].nic.phy80211p recordStats false
par Scenario.node[97].nic.phy80211p usePropagationDelay true
par Scenario.node[97].nic.phy80211p noiseFloor -98dBm
attr unit dBm
par Scenario.node[97].nic.phy80211p useNoiseFloor true
par Scenario.node[97].nic.phy80211p antenna "<root>...</root> at content:1"
par Scenario.node[97].nic.phy80211p antennaOffsetX 0m
attr unit m
par Scenario.node[97].nic.phy80211p antennaOffsetY 0m
attr unit m
par Scenario.node[97].nic.phy80211p antennaOffsetZ 1.895m
attr unit m
par Scenario.node[97].nic.phy80211p antennaOffsetYaw 0rad
attr unit rad
par Scenario.node[97].nic.phy80211p analogueModels "<root>...</root> at /home/vagrant/spe-homework-project/Project/simulations//config_3.xml:2"
par Scenario.node[97].nic.phy80211p decider "<root>...</root> at /home/vagrant/spe-homework-project/Project/simulations//config_3.xml:2"
par Scenario.node[97].nic.phy80211p minPowerLevel -110dBm
attr unit dBm
par Scenario.node[97].nic.phy80211p timeRXToTX 0s
attr unit s
par Scenario.node[97].nic.phy80211p timeRXToSleep 0s
attr unit s
par Scenario.node[97].nic.phy80211p timeTXToRX 0s
attr unit s
par Scenario.node[97].nic.phy80211p timeTXToSleep 0s
attr unit s
par Scenario.node[97].nic.phy80211p timeSleepToRX 0s
attr unit s
par Scenario.node[97].nic.phy80211p timeSleepToTX 0s
attr unit s
par Scenario.node[97].nic.phy80211p initialRadioState 0
par Scenario.node[97].nic.phy80211p radioMinAtt 1
par Scenario.node[97].nic.phy80211p radioMaxAtt 0
par Scenario.node[97].nic.phy80211p nbRadioChannels 1
par Scenario.node[97].nic.phy80211p initialRadioChannel 0
par Scenario.node[97].nic.phy80211p ccaThreshold -65dBm
attr unit dBm
par Scenario.node[97].nic.phy80211p collectCollisionStatistics false
par Scenario.node[97].nic.phy80211p allowTxDuringRx false
scalar Scenario.node[97].nic.phy80211p busyTime 0.045136
par Scenario.node[97].nic.mac1609_4 typename "\"org.car2x.veins.modules.mac.ieee80211p.Mac1609_4\""
par Scenario.node[97].nic.mac1609_4 notAffectedByHostState false
par Scenario.node[97].nic.mac1609_4 headerLength 0bit
attr unit bit
par Scenario.node[97].nic.mac1609_4 address "\"auto\""
par Scenario.node[97].nic.mac1609_4 useServiceChannel false
par Scenario.node[97].nic.mac1609_4 serviceChannel 1
par Scenario.node[97].nic.mac1609_4 bitrate 6000000bps
attr unit bps
par Scenario.node[97].nic.mac1609_4 syncOffset 0.0003s
attr unit s
par Scenario.node[97].nic.mac1609_4 txPower 20mW
attr unit mW
par Scenario.node[97].nic.mac1609_4 queueSize 0
par Scenario.node[97].nic.mac1609_4 dot11RTSThreshold 12000bit
attr unit bit
par Scenario.node[97].nic.mac1609_4 dot11ShortRetryLimit 7
par Scenario.node[97].nic.mac1609_4 dot11LongRetryLimit 4
par Scenario.node[97].nic.mac1609_4 ackLength 112bit
attr unit bit
par Scenario.node[97].nic.mac1609_4 useAcks false
par Scenario.node[97].nic.mac1609_4 frameErrorRate 0
par Scenario.node[97].nic.mac1609_4 ackErrorRate 0
scalar Scenario.node[97].nic.mac1609_4 ReceivedUnicastPackets 0
scalar Scenario.node[97].nic.mac1609_4 ReceivedBroadcasts 194
scalar Scenario.node[97].nic.mac1609_4 SentPackets 5
scalar Scenario.node[97].nic.mac1609_4 SentAcknowledgements 0
scalar Scenario.node[97].nic.mac1609_4 RetriesExceeded 0
scalar Scenario.node[97].nic.mac1609_4 SNIRLostPackets 23
scalar Scenario.node[97].nic.mac1609_4 RXTXLostPackets 0
scalar Scenario.node[97].nic.mac1609_4 TotalLostPackets 23
scalar Scenario.node[97].nic.mac1609_4 DroppedPacketsInMac 0
scalar Scenario.node[97].nic.mac1609_4 TooLittleTime 0
scalar Scenario.node[97].nic.mac1609_4 TimesIntoBackoff 5
scalar Scenario.node[97].nic.mac1609_4 SlotsBackoff 8
scalar Scenario.node[97].nic.mac1609_4 NumInternalContention 0
scalar Scenario.node[97].nic.mac1609_4 totalBusyTime 0.022469
scalar Scenario.node[97].nic.mac1609_4 retriesExceeded:count 0
attr recordingmode count
attr source org_car2x_veins_modules_mac_sigRetriesExceeded
scalar Scenario.node[97].nic.mac1609_4 sentAcks:count 0
attr recordingmode count
attr source org_car2x_veins_modules_mac_sigSentAck
scalar Scenario.node[97].nic.mac1609_4 sentPackets:count 5
attr recordingmode count
attr source org_car2x_veins_modules_mac_sigSentPacket
scalar Scenario.node[97].nic.mac1609_4 collisions:count 0
attr recordingmode count
attr source org_car2x_veins_modules_mac_sigCollision
scalar Scenario.node[97].nic.mac1609_4 channelBusy:timeavg 0.044938
attr recordingmode timeavg
attr source org_car2x_veins_modules_mac_sigChannelBusy
par Scenario.node[97].nic typename "\"org.car2x.veins.modules.nic.Nic80211p\""
par Scenario.node[97].nic connectionManagerName "\"connectionManager\""
par Scenario.node[97].veinsmobility typename "\"org.car2x.veins.modules.mobility.traci.TraCIMobility\""
par Scenario.node[97].veinsmobility notAffectedByHostState true
par Scenario.node[97].veinsmobility x 0
par Scenario.node[97].veinsmobility y 0
par Scenario.node[97].veinsmobility z 1.895
par Scenario.node[97].veinsmobility xOrientation 1
par Scenario.node[97].veinsmobility yOrientation 0
par Scenario.node[97].veinsmobility zOrientation 0
par Scenario.node[97].veinsmobility hostPositionOffset 0m
attr unit m
par Scenario.node[97].veinsmobility setHostSpeed false
par Scenario.node[97].veinsmobility accidentCount 0
par Scenario.node[97].veinsmobility accidentStart 49.1923s
attr unit s
par Scenario.node[97].veinsmobility accidentDuration "uniform(30s, 60s)"
attr unit s
par Scenario.node[97].veinsmobility accidentInterval "uniform(30s, 60s)"
attr unit s
scalar Scenario.node[97].veinsmobility startTime 99.5
scalar Scenario.node[97].veinsmobility totalTime 0.5
scalar Scenario.node[97].veinsmobility stopTime 100
scalar Scenario.node[97].veinsmobility minSpeed 0.25024275061209
scalar Scenario.node[97].veinsmobility maxSpeed 1.1775199123207
scalar Scenario.node[97].veinsmobility totalDistance 0.36102185996063
scalar Scenario.node[97].veinsmobility totalCO2Emission 0.64576532084772
par Scenario.node[97] typename "\"org.car2x.veins.nodes.Car\""
par Scenario.node[97] applType "\"TraCIDemo11p\""
par Scenario.node[97] nicType "\"Nic80211p\""
par Scenario.node[97] veinsmobilityType "\"org.car2x.veins.modules.mobility.traci.TraCIMobility\""
par Scenario typename "\"org.car2x.veins.nodes.Scenario\""
par Scenario playgroundSizeX 600m
attr unit m
par Scenario playgroundSizeY 600m
attr unit m
par Scenario playgroundSizeZ 50m
attr unit m

