version 3
run Scenario3-4-20260625-11:53:42-4301
attr configname Scenario3
attr datetime 20260625-11:53:42
attr datetimef 20260625-115342
attr experiment Scenario3
attr inifile omnetpp.ini
attr iterationvars ""
attr iterationvarsd ""
attr iterationvarsf ""
attr measurement ""
attr network org.car2x.veins.nodes.Scenario
attr processid 4301
attr repetition 4
attr replication #4
attr resultdir results
attr runnumber 4
attr seedset 4
config image-path ../../../veins/images
config description "Obstacle Shadowing (Buildings block signals)"
config *.annotations.draw true
config *.obstacles.obstacles "xmldoc(\"config_3.xml\", \"//AnalogueModel[@type='SimpleObstacleShadowing']/obstacles\")"
config *.**.nic.phy80211p.decider "xmldoc(\"config_3.xml\")"
config *.**.nic.phy80211p.analogueModels "xmldoc(\"config_3.xml\")"
config repeat 10
config seed-set 4
config network org.car2x.veins.nodes.Scenario
config sim-time-limit 100s
config *.playgroundSizeX 600m
config *.playgroundSizeY 600m
config *.playgroundSizeZ 50m
config *.manager.updateInterval 0.1s
config *.manager.host "\"localhost\""
config *.manager.port 9999
config *.manager.autoShutdown true
config *.manager.launchConfig "xmldoc(\"simulation.launchd.xml\")"
config *.node[*].veinsmobility.x 0
config *.node[*].veinsmobility.y 0
config *.node[*].veinsmobility.z 1.895
config *.node[*].applType "\"TraCIDemo11p\""
config *.node[*].appl.headerLength "80 bit"
config *.node[*].appl.sendBeacons true
config *.node[*].appl.dataOnSch false
config *.node[*].appl.beaconInterval 0.1s
config *.connectionManager.sendDirect true
config *.connectionManager.maxInterfDist 500m
config *.connectionManager.drawMaxIntfDist false
config *.**.nic.mac1609_4.useServiceChannel false
config *.**.nic.mac1609_4.txPower 20mW
config *.**.nic.mac1609_4.bitrate 6Mbps
config *.**.nic.phy80211p.minPowerLevel -110dBm
config *.**.nic.phy80211p.useNoiseFloor true
config *.**.nic.phy80211p.noiseFloor -98dBm
config *.**.nic.phy80211p.usePropagationDelay true
config **.vector-recording true
config **.scalar-recording true
config *.**.nic.phy80211p.*.vector-recording true
config *.**.nic.mac1609_4.*.vector-recording true
config **.rcvdPower:vector.vector-recording true
config **.snir:vector.vector-recording true

par Scenario.node[13].appl typename "\"org.car2x.veins.modules.application.traci.TraCIDemo11p\""
par Scenario.node[13].appl headerLength 80bit
attr unit bit
par Scenario.node[13].appl sendBeacons true
par Scenario.node[13].appl beaconLengthBits 256bit
attr unit bit
par Scenario.node[13].appl beaconUserPriority 7
par Scenario.node[13].appl beaconInterval 0.1s
attr unit s
par Scenario.node[13].appl dataLengthBits 1024bit
attr unit bit
par Scenario.node[13].appl dataOnSch false
par Scenario.node[13].appl dataUserPriority 7
par Scenario.node[13].appl avoidBeaconSynchronization true
par Scenario.node[13].appl sendWSA false
par Scenario.node[13].appl wsaLengthBits 250bit
attr unit bit
par Scenario.node[13].appl wsaInterval 1s
attr unit s
scalar Scenario.node[13].appl generatedWSMs 0
scalar Scenario.node[13].appl receivedWSMs 0
scalar Scenario.node[13].appl generatedBSMs 132
scalar Scenario.node[13].appl receivedBSMs 878
scalar Scenario.node[13].appl generatedWSAs 0
scalar Scenario.node[13].appl receivedWSAs 0
par Scenario.node[13].nic.phy80211p typename "\"org.car2x.veins.modules.phy.PhyLayer80211p\""
par Scenario.node[13].nic.phy80211p recordStats false
par Scenario.node[13].nic.phy80211p usePropagationDelay true
par Scenario.node[13].nic.phy80211p noiseFloor -98dBm
attr unit dBm
par Scenario.node[13].nic.phy80211p useNoiseFloor true
par Scenario.node[13].nic.phy80211p antenna "<root>...</root> at content:1"
par Scenario.node[13].nic.phy80211p antennaOffsetX 0m
attr unit m
par Scenario.node[13].nic.phy80211p antennaOffsetY 0m
attr unit m
par Scenario.node[13].nic.phy80211p antennaOffsetZ 1.895m
attr unit m
par Scenario.node[13].nic.phy80211p antennaOffsetYaw 0rad
attr unit rad
par Scenario.node[13].nic.phy80211p analogueModels "<root>...</root> at /home/vagrant/spe-homework-project/Project/simulations//config_3.xml:2"
par Scenario.node[13].nic.phy80211p decider "<root>...</root> at /home/vagrant/spe-homework-project/Project/simulations//config_3.xml:2"
par Scenario.node[13].nic.phy80211p minPowerLevel -110dBm
attr unit dBm
par Scenario.node[13].nic.phy80211p timeRXToTX 0s
attr unit s
par Scenario.node[13].nic.phy80211p timeRXToSleep 0s
attr unit s
par Scenario.node[13].nic.phy80211p timeTXToRX 0s
attr unit s
par Scenario.node[13].nic.phy80211p timeTXToSleep 0s
attr unit s
par Scenario.node[13].nic.phy80211p timeSleepToRX 0s
attr unit s
par Scenario.node[13].nic.phy80211p timeSleepToTX 0s
attr unit s
par Scenario.node[13].nic.phy80211p initialRadioState 0
par Scenario.node[13].nic.phy80211p radioMinAtt 1
par Scenario.node[13].nic.phy80211p radioMaxAtt 0
par Scenario.node[13].nic.phy80211p nbRadioChannels 1
par Scenario.node[13].nic.phy80211p initialRadioChannel 0
par Scenario.node[13].nic.phy80211p ccaThreshold -65dBm
attr unit dBm
par Scenario.node[13].nic.phy80211p collectCollisionStatistics false
par Scenario.node[13].nic.phy80211p allowTxDuringRx false
scalar Scenario.node[13].nic.phy80211p busyTime 0.0075163636363638
par Scenario.node[13].nic.mac1609_4 typename "\"org.car2x.veins.modules.mac.ieee80211p.Mac1609_4\""
par Scenario.node[13].nic.mac1609_4 notAffectedByHostState false
par Scenario.node[13].nic.mac1609_4 headerLength 0bit
attr unit bit
par Scenario.node[13].nic.mac1609_4 address "\"auto\""
par Scenario.node[13].nic.mac1609_4 useServiceChannel false
par Scenario.node[13].nic.mac1609_4 serviceChannel 1
par Scenario.node[13].nic.mac1609_4 bitrate 6000000bps
attr unit bps
par Scenario.node[13].nic.mac1609_4 syncOffset 0.0003s
attr unit s
par Scenario.node[13].nic.mac1609_4 txPower 20mW
attr unit mW
par Scenario.node[13].nic.mac1609_4 queueSize 0
par Scenario.node[13].nic.mac1609_4 dot11RTSThreshold 12000bit
attr unit bit
par Scenario.node[13].nic.mac1609_4 dot11ShortRetryLimit 7
par Scenario.node[13].nic.mac1609_4 dot11LongRetryLimit 4
par Scenario.node[13].nic.mac1609_4 ackLength 112bit
attr unit bit
par Scenario.node[13].nic.mac1609_4 useAcks false
par Scenario.node[13].nic.mac1609_4 frameErrorRate 0
par Scenario.node[13].nic.mac1609_4 ackErrorRate 0
scalar Scenario.node[13].nic.mac1609_4 ReceivedUnicastPackets 0
scalar Scenario.node[13].nic.mac1609_4 ReceivedBroadcasts 878
scalar Scenario.node[13].nic.mac1609_4 SentPackets 132
scalar Scenario.node[13].nic.mac1609_4 SentAcknowledgements 0
scalar Scenario.node[13].nic.mac1609_4 RetriesExceeded 0
scalar Scenario.node[13].nic.mac1609_4 SNIRLostPackets 76
scalar Scenario.node[13].nic.mac1609_4 RXTXLostPackets 0
scalar Scenario.node[13].nic.mac1609_4 TotalLostPackets 76
scalar Scenario.node[13].nic.mac1609_4 DroppedPacketsInMac 0
scalar Scenario.node[13].nic.mac1609_4 TooLittleTime 0
scalar Scenario.node[13].nic.mac1609_4 TimesIntoBackoff 132
scalar Scenario.node[13].nic.mac1609_4 SlotsBackoff 207
scalar Scenario.node[13].nic.mac1609_4 NumInternalContention 0
scalar Scenario.node[13].nic.mac1609_4 totalBusyTime 0.113076
scalar Scenario.node[13].nic.mac1609_4 retriesExceeded:count 0
attr recordingmode count
attr source org_car2x_veins_modules_mac_sigRetriesExceeded
scalar Scenario.node[13].nic.mac1609_4 sentAcks:count 0
attr recordingmode count
attr source org_car2x_veins_modules_mac_sigSentAck
scalar Scenario.node[13].nic.mac1609_4 sentPackets:count 132
attr recordingmode count
attr source org_car2x_veins_modules_mac_sigSentPacket
scalar Scenario.node[13].nic.mac1609_4 collisions:count 0
attr recordingmode count
attr source org_car2x_veins_modules_mac_sigCollision
scalar Scenario.node[13].nic.mac1609_4 channelBusy:timeavg 0.0085663636363638
attr recordingmode timeavg
attr source org_car2x_veins_modules_mac_sigChannelBusy
par Scenario.node[13].nic typename "\"org.car2x.veins.modules.nic.Nic80211p\""
par Scenario.node[13].nic connectionManagerName "\"connectionManager\""
par Scenario.node[13].veinsmobility typename "\"org.car2x.veins.modules.mobility.traci.TraCIMobility\""
par Scenario.node[13].veinsmobility notAffectedByHostState true
par Scenario.node[13].veinsmobility x 0
par Scenario.node[13].veinsmobility y 0
par Scenario.node[13].veinsmobility z 1.895
par Scenario.node[13].veinsmobility xOrientation 1
par Scenario.node[13].veinsmobility yOrientation 0
par Scenario.node[13].veinsmobility zOrientation 0
par Scenario.node[13].veinsmobility hostPositionOffset 0m
attr unit m
par Scenario.node[13].veinsmobility setHostSpeed false
par Scenario.node[13].veinsmobility accidentCount 0
par Scenario.node[13].veinsmobility accidentStart 47.0031s
attr unit s
par Scenario.node[13].veinsmobility accidentDuration "uniform(30s, 60s)"
attr unit s
par Scenario.node[13].veinsmobility accidentInterval "uniform(30s, 60s)"
attr unit s
scalar Scenario.node[13].veinsmobility startTime 13.1
scalar Scenario.node[13].veinsmobility totalTime 13.1
scalar Scenario.node[13].veinsmobility stopTime 26.3
scalar Scenario.node[13].veinsmobility minSpeed 0.25154513483448
scalar Scenario.node[13].veinsmobility maxSpeed 13.824673830217
scalar Scenario.node[13].veinsmobility totalDistance 133.71779294234
scalar Scenario.node[13].veinsmobility totalCO2Emission 48.147141033446
par Scenario.node[13] typename "\"org.car2x.veins.nodes.Car\""
par Scenario.node[13] applType "\"TraCIDemo11p\""
par Scenario.node[13] nicType "\"Nic80211p\""
par Scenario.node[13] veinsmobilityType "\"org.car2x.veins.modules.mobility.traci.TraCIMobility\""
par Scenario.node[7].appl typename "\"org.car2x.veins.modules.application.traci.TraCIDemo11p\""
par Scenario.node[7].appl headerLength 80bit
attr unit bit
par Scenario.node[7].appl sendBeacons true
par Scenario.node[7].appl beaconLengthBits 256bit
attr unit bit
par Scenario.node[7].appl beaconUserPriority 7
par Scenario.node[7].appl beaconInterval 0.1s
attr unit s
par Scenario.node[7].appl dataLengthBits 1024bit
attr unit bit
par Scenario.node[7].appl dataOnSch false
par Scenario.node[7].appl dataUserPriority 7
par Scenario.node[7].appl avoidBeaconSynchronization true
par Scenario.node[7].appl sendWSA false
par Scenario.node[7].appl wsaLengthBits 250bit
attr unit bit
par Scenario.node[7].appl wsaInterval 1s
attr unit s
scalar Scenario.node[7].appl generatedWSMs 0
scalar Scenario.node[7].appl receivedWSMs 0
scalar Scenario.node[7].appl generatedBSMs 243
scalar Scenario.node[7].appl receivedBSMs 2106
scalar Scenario.node[7].appl generatedWSAs 0
scalar Scenario.node[7].appl receivedWSAs 0
par Scenario.node[7].nic.phy80211p typename "\"org.car2x.veins.modules.phy.PhyLayer80211p\""
par Scenario.node[7].nic.phy80211p recordStats false
par Scenario.node[7].nic.phy80211p usePropagationDelay true
par Scenario.node[7].nic.phy80211p noiseFloor -98dBm
attr unit dBm
par Scenario.node[7].nic.phy80211p useNoiseFloor true
par Scenario.node[7].nic.phy80211p antenna "<root>...</root> at content:1"
par Scenario.node[7].nic.phy80211p antennaOffsetX 0m
attr unit m
par Scenario.node[7].nic.phy80211p antennaOffsetY 0m
attr unit m
par Scenario.node[7].nic.phy80211p antennaOffsetZ 1.895m
attr unit m
par Scenario.node[7].nic.phy80211p antennaOffsetYaw 0rad
attr unit rad
par Scenario.node[7].nic.phy80211p analogueModels "<root>...</root> at /home/vagrant/spe-homework-project/Project/simulations//config_3.xml:2"
par Scenario.node[7].nic.phy80211p decider "<root>...</root> at /home/vagrant/spe-homework-project/Project/simulations//config_3.xml:2"
par Scenario.node[7].nic.phy80211p minPowerLevel -110dBm
attr unit dBm
par Scenario.node[7].nic.phy80211p timeRXToTX 0s
attr unit s
par Scenario.node[7].nic.phy80211p timeRXToSleep 0s
attr unit s
par Scenario.node[7].nic.phy80211p timeTXToRX 0s
attr unit s
par Scenario.node[7].nic.phy80211p timeTXToSleep 0s
attr unit s
par Scenario.node[7].nic.phy80211p timeSleepToRX 0s
attr unit s
par Scenario.node[7].nic.phy80211p timeSleepToTX 0s
attr unit s
par Scenario.node[7].nic.phy80211p initialRadioState 0
par Scenario.node[7].nic.phy80211p radioMinAtt 1
par Scenario.node[7].nic.phy80211p radioMaxAtt 0
par Scenario.node[7].nic.phy80211p nbRadioChannels 1
par Scenario.node[7].nic.phy80211p initialRadioChannel 0
par Scenario.node[7].nic.phy80211p ccaThreshold -65dBm
attr unit dBm
par Scenario.node[7].nic.phy80211p collectCollisionStatistics false
par Scenario.node[7].nic.phy80211p allowTxDuringRx false
scalar Scenario.node[7].nic.phy80211p busyTime 0.010100411522634
par Scenario.node[7].nic.mac1609_4 typename "\"org.car2x.veins.modules.mac.ieee80211p.Mac1609_4\""
par Scenario.node[7].nic.mac1609_4 notAffectedByHostState false
par Scenario.node[7].nic.mac1609_4 headerLength 0bit
attr unit bit
par Scenario.node[7].nic.mac1609_4 address "\"auto\""
par Scenario.node[7].nic.mac1609_4 useServiceChannel false
par Scenario.node[7].nic.mac1609_4 serviceChannel 1
par Scenario.node[7].nic.mac1609_4 bitrate 6000000bps
attr unit bps
par Scenario.node[7].nic.mac1609_4 syncOffset 0.0003s
attr unit s
par Scenario.node[7].nic.mac1609_4 txPower 20mW
attr unit mW
par Scenario.node[7].nic.mac1609_4 queueSize 0
par Scenario.node[7].nic.mac1609_4 dot11RTSThreshold 12000bit
attr unit bit
par Scenario.node[7].nic.mac1609_4 dot11ShortRetryLimit 7
par Scenario.node[7].nic.mac1609_4 dot11LongRetryLimit 4
par Scenario.node[7].nic.mac1609_4 ackLength 112bit
attr unit bit
par Scenario.node[7].nic.mac1609_4 useAcks false
par Scenario.node[7].nic.mac1609_4 frameErrorRate 0
par Scenario.node[7].nic.mac1609_4 ackErrorRate 0
scalar Scenario.node[7].nic.mac1609_4 ReceivedUnicastPackets 0
scalar Scenario.node[7].nic.mac1609_4 ReceivedBroadcasts 2106
scalar Scenario.node[7].nic.mac1609_4 SentPackets 243
scalar Scenario.node[7].nic.mac1609_4 SentAcknowledgements 0
scalar Scenario.node[7].nic.mac1609_4 RetriesExceeded 0
scalar Scenario.node[7].nic.mac1609_4 SNIRLostPackets 254
scalar Scenario.node[7].nic.mac1609_4 RXTXLostPackets 0
scalar Scenario.node[7].nic.mac1609_4 TotalLostPackets 254
scalar Scenario.node[7].nic.mac1609_4 DroppedPacketsInMac 0
scalar Scenario.node[7].nic.mac1609_4 TooLittleTime 0
scalar Scenario.node[7].nic.mac1609_4 TimesIntoBackoff 243
scalar Scenario.node[7].nic.mac1609_4 SlotsBackoff 395
scalar Scenario.node[7].nic.mac1609_4 NumInternalContention 0
scalar Scenario.node[7].nic.mac1609_4 totalBusyTime 0.270955
scalar Scenario.node[7].nic.mac1609_4 retriesExceeded:count 0
attr recordingmode count
attr source org_car2x_veins_modules_mac_sigRetriesExceeded
scalar Scenario.node[7].nic.mac1609_4 sentAcks:count 0
attr recordingmode count
attr source org_car2x_veins_modules_mac_sigSentAck
scalar Scenario.node[7].nic.mac1609_4 sentPackets:count 243
attr recordingmode count
attr source org_car2x_veins_modules_mac_sigSentPacket
scalar Scenario.node[7].nic.mac1609_4 collisions:count 0
attr recordingmode count
attr source org_car2x_veins_modules_mac_sigCollision
scalar Scenario.node[7].nic.mac1609_4 channelBusy:timeavg 0.011150411522634
attr recordingmode timeavg
attr source org_car2x_veins_modules_mac_sigChannelBusy
par Scenario.node[7].nic typename "\"org.car2x.veins.modules.nic.Nic80211p\""
par Scenario.node[7].nic connectionManagerName "\"connectionManager\""
par Scenario.node[7].veinsmobility typename "\"org.car2x.veins.modules.mobility.traci.TraCIMobility\""
par Scenario.node[7].veinsmobility notAffectedByHostState true
par Scenario.node[7].veinsmobility x 0
par Scenario.node[7].veinsmobility y 0
par Scenario.node[7].veinsmobility z 1.895
par Scenario.node[7].veinsmobility xOrientation 1
par Scenario.node[7].veinsmobility yOrientation 0
par Scenario.node[7].veinsmobility zOrientation 0
par Scenario.node[7].veinsmobility hostPositionOffset 0m
attr unit m
par Scenario.node[7].veinsmobility setHostSpeed false
par Scenario.node[7].veinsmobility accidentCount 0
par Scenario.node[7].veinsmobility accidentStart 32.9953s
attr unit s
par Scenario.node[7].veinsmobility accidentDuration "uniform(30s, 60s)"
attr unit s
par Scenario.node[7].veinsmobility accidentInterval "uniform(30s, 60s)"
attr unit s
scalar Scenario.node[7].veinsmobility startTime 7.1
scalar Scenario.node[7].veinsmobility totalTime 24.2
scalar Scenario.node[7].veinsmobility stopTime 31.4
scalar Scenario.node[7].veinsmobility minSpeed 0.25073255745741
scalar Scenario.node[7].veinsmobility maxSpeed 15.194262745376
scalar Scenario.node[7].veinsmobility totalDistance 279.54832576107
scalar Scenario.node[7].veinsmobility totalCO2Emission 97.845651967007
par Scenario.node[7] typename "\"org.car2x.veins.nodes.Car\""
par Scenario.node[7] applType "\"TraCIDemo11p\""
par Scenario.node[7] nicType "\"Nic80211p\""
par Scenario.node[7] veinsmobilityType "\"org.car2x.veins.modules.mobility.traci.TraCIMobility\""
par Scenario.node[6].appl typename "\"org.car2x.veins.modules.application.traci.TraCIDemo11p\""
par Scenario.node[6].appl headerLength 80bit
attr unit bit
par Scenario.node[6].appl sendBeacons true
par Scenario.node[6].appl beaconLengthBits 256bit
attr unit bit
par Scenario.node[6].appl beaconUserPriority 7
par Scenario.node[6].appl beaconInterval 0.1s
attr unit s
par Scenario.node[6].appl dataLengthBits 1024bit
attr unit bit
par Scenario.node[6].appl dataOnSch false
par Scenario.node[6].appl dataUserPriority 7
par Scenario.node[6].appl avoidBeaconSynchronization true
par Scenario.node[6].appl sendWSA false
par Scenario.node[6].appl wsaLengthBits 250bit
attr unit bit
par Scenario.node[6].appl wsaInterval 1s
attr unit s
scalar Scenario.node[6].appl generatedWSMs 0
scalar Scenario.node[6].appl receivedWSMs 1
scalar Scenario.node[6].appl generatedBSMs 284
scalar Scenario.node[6].appl receivedBSMs 2313
scalar Scenario.node[6].appl generatedWSAs 0
scalar Scenario.node[6].appl receivedWSAs 0
par Scenario.node[6].nic.phy80211p typename "\"org.car2x.veins.modules.phy.PhyLayer80211p\""
par Scenario.node[6].nic.phy80211p recordStats false
par Scenario.node[6].nic.phy80211p usePropagationDelay true
par Scenario.node[6].nic.phy80211p noiseFloor -98dBm
attr unit dBm
par Scenario.node[6].nic.phy80211p useNoiseFloor true
par Scenario.node[6].nic.phy80211p antenna "<root>...</root> at content:1"
par Scenario.node[6].nic.phy80211p antennaOffsetX 0m
attr unit m
par Scenario.node[6].nic.phy80211p antennaOffsetY 0m
attr unit m
par Scenario.node[6].nic.phy80211p antennaOffsetZ 1.895m
attr unit m
par Scenario.node[6].nic.phy80211p antennaOffsetYaw 0rad
attr unit rad
par Scenario.node[6].nic.phy80211p analogueModels "<root>...</root> at /home/vagrant/spe-homework-project/Project/simulations//config_3.xml:2"
par Scenario.node[6].nic.phy80211p decider "<root>...</root> at /home/vagrant/spe-homework-project/Project/simulations//config_3.xml:2"
par Scenario.node[6].nic.phy80211p minPowerLevel -110dBm
attr unit dBm
par Scenario.node[6].nic.phy80211p timeRXToTX 0s
attr unit s
par Scenario.node[6].nic.phy80211p timeRXToSleep 0s
attr unit s
par Scenario.node[6].nic.phy80211p timeTXToRX 0s
attr unit s
par Scenario.node[6].nic.phy80211p timeTXToSleep 0s
attr unit s
par Scenario.node[6].nic.phy80211p timeSleepToRX 0s
attr unit s
par Scenario.node[6].nic.phy80211p timeSleepToTX 0s
attr unit s
par Scenario.node[6].nic.phy80211p initialRadioState 0
par Scenario.node[6].nic.phy80211p radioMinAtt 1
par Scenario.node[6].nic.phy80211p radioMaxAtt 0
par Scenario.node[6].nic.phy80211p nbRadioChannels 1
par Scenario.node[6].nic.phy80211p initialRadioChannel 0
par Scenario.node[6].nic.phy80211p ccaThreshold -65dBm
attr unit dBm
par Scenario.node[6].nic.phy80211p collectCollisionStatistics false
par Scenario.node[6].nic.phy80211p allowTxDuringRx false
scalar Scenario.node[6].nic.phy80211p busyTime 0.0095366197183097
par Scenario.node[6].nic.mac1609_4 typename "\"org.car2x.veins.modules.mac.ieee80211p.Mac1609_4\""
par Scenario.node[6].nic.mac1609_4 notAffectedByHostState false
par Scenario.node[6].nic.mac1609_4 headerLength 0bit
attr unit bit
par Scenario.node[6].nic.mac1609_4 address "\"auto\""
par Scenario.node[6].nic.mac1609_4 useServiceChannel false
par Scenario.node[6].nic.mac1609_4 serviceChannel 1
par Scenario.node[6].nic.mac1609_4 bitrate 6000000bps
attr unit bps
par Scenario.node[6].nic.mac1609_4 syncOffset 0.0003s
attr unit s
par Scenario.node[6].nic.mac1609_4 txPower 20mW
attr unit mW
par Scenario.node[6].nic.mac1609_4 queueSize 0
par Scenario.node[6].nic.mac1609_4 dot11RTSThreshold 12000bit
attr unit bit
par Scenario.node[6].nic.mac1609_4 dot11ShortRetryLimit 7
par Scenario.node[6].nic.mac1609_4 dot11LongRetryLimit 4
par Scenario.node[6].nic.mac1609_4 ackLength 112bit
attr unit bit
par Scenario.node[6].nic.mac1609_4 useAcks false
par Scenario.node[6].nic.mac1609_4 frameErrorRate 0
par Scenario.node[6].nic.mac1609_4 ackErrorRate 0
scalar Scenario.node[6].nic.mac1609_4 ReceivedUnicastPackets 0
scalar Scenario.node[6].nic.mac1609_4 ReceivedBroadcasts 2314
scalar Scenario.node[6].nic.mac1609_4 SentPackets 284
scalar Scenario.node[6].nic.mac1609_4 SentAcknowledgements 0
scalar Scenario.node[6].nic.mac1609_4 RetriesExceeded 0
scalar Scenario.node[6].nic.mac1609_4 SNIRLostPackets 289
scalar Scenario.node[6].nic.mac1609_4 RXTXLostPackets 0
scalar Scenario.node[6].nic.mac1609_4 TotalLostPackets 289
scalar Scenario.node[6].nic.mac1609_4 DroppedPacketsInMac 0
scalar Scenario.node[6].nic.mac1609_4 TooLittleTime 0
scalar Scenario.node[6].nic.mac1609_4 TimesIntoBackoff 284
scalar Scenario.node[6].nic.mac1609_4 SlotsBackoff 418
scalar Scenario.node[6].nic.mac1609_4 NumInternalContention 0
scalar Scenario.node[6].nic.mac1609_4 totalBusyTime 0.30066
scalar Scenario.node[6].nic.mac1609_4 retriesExceeded:count 0
attr recordingmode count
attr source org_car2x_veins_modules_mac_sigRetriesExceeded
scalar Scenario.node[6].nic.mac1609_4 sentAcks:count 0
attr recordingmode count
attr source org_car2x_veins_modules_mac_sigSentAck
scalar Scenario.node[6].nic.mac1609_4 sentPackets:count 284
attr recordingmode count
attr source org_car2x_veins_modules_mac_sigSentPacket
scalar Scenario.node[6].nic.mac1609_4 collisions:count 0
attr recordingmode count
attr source org_car2x_veins_modules_mac_sigCollision
scalar Scenario.node[6].nic.mac1609_4 channelBusy:timeavg 0.01058661971831
attr recordingmode timeavg
attr source org_car2x_veins_modules_mac_sigChannelBusy
par Scenario.node[6].nic typename "\"org.car2x.veins.modules.nic.Nic80211p\""
par Scenario.node[6].nic connectionManagerName "\"connectionManager\""
par Scenario.node[6].veinsmobility typename "\"org.car2x.veins.modules.mobility.traci.TraCIMobility\""
par Scenario.node[6].veinsmobility notAffectedByHostState true
par Scenario.node[6].veinsmobility x 0
par Scenario.node[6].veinsmobility y 0
par Scenario.node[6].veinsmobility z 1.895
par Scenario.node[6].veinsmobility xOrientation 1
par Scenario.node[6].veinsmobility yOrientation 0
par Scenario.node[6].veinsmobility zOrientation 0
par Scenario.node[6].veinsmobility hostPositionOffset 0m
attr unit m
par Scenario.node[6].veinsmobility setHostSpeed false
par Scenario.node[6].veinsmobility accidentCount 0
par Scenario.node[6].veinsmobility accidentStart 56.7863s
attr unit s
par Scenario.node[6].veinsmobility accidentDuration "uniform(30s, 60s)"
attr unit s
par Scenario.node[6].veinsmobility accidentInterval "uniform(30s, 60s)"
attr unit s
scalar Scenario.node[6].veinsmobility startTime 6.1
scalar Scenario.node[6].veinsmobility totalTime 28.3
scalar Scenario.node[6].veinsmobility stopTime 34.5
scalar Scenario.node[6].veinsmobility minSpeed 0.2570972159754
scalar Scenario.node[6].veinsmobility maxSpeed 12.02601385855
scalar Scenario.node[6].veinsmobility totalDistance 278.49100199709
scalar Scenario.node[6].veinsmobility totalCO2Emission 82.002703480972
par Scenario.node[6] typename "\"org.car2x.veins.nodes.Car\""
par Scenario.node[6] applType "\"TraCIDemo11p\""
par Scenario.node[6] nicType "\"Nic80211p\""
par Scenario.node[6] veinsmobilityType "\"org.car2x.veins.modules.mobility.traci.TraCIMobility\""
par Scenario.node[0].appl typename "\"org.car2x.veins.modules.application.traci.TraCIDemo11p\""
par Scenario.node[0].appl headerLength 80bit
attr unit bit
par Scenario.node[0].appl sendBeacons true
par Scenario.node[0].appl beaconLengthBits 256bit
attr unit bit
par Scenario.node[0].appl beaconUserPriority 7
par Scenario.node[0].appl beaconInterval 0.1s
attr unit s
par Scenario.node[0].appl dataLengthBits 1024bit
attr unit bit
par Scenario.node[0].appl dataOnSch false
par Scenario.node[0].appl dataUserPriority 7
par Scenario.node[0].appl avoidBeaconSynchronization true
par Scenario.node[0].appl sendWSA false
par Scenario.node[0].appl wsaLengthBits 250bit
attr unit bit
par Scenario.node[0].appl wsaInterval 1s
attr unit s
scalar Scenario.node[0].appl generatedWSMs 1
scalar Scenario.node[0].appl receivedWSMs 14
scalar Scenario.node[0].appl generatedBSMs 496
scalar Scenario.node[0].appl receivedBSMs 3470
scalar Scenario.node[0].appl generatedWSAs 0
scalar Scenario.node[0].appl receivedWSAs 0
par Scenario.node[0].nic.phy80211p typename "\"org.car2x.veins.modules.phy.PhyLayer80211p\""
par Scenario.node[0].nic.phy80211p recordStats false
par Scenario.node[0].nic.phy80211p usePropagationDelay true
par Scenario.node[0].nic.phy80211p noiseFloor -98dBm
attr unit dBm
par Scenario.node[0].nic.phy80211p useNoiseFloor true
par Scenario.node[0].nic.phy80211p antenna "<root>...</root> at content:1"
par Scenario.node[0].nic.phy80211p antennaOffsetX 0m
attr unit m
par Scenario.node[0].nic.phy80211p antennaOffsetY 0m
attr unit m
par Scenario.node[0].nic.phy80211p antennaOffsetZ 1.895m
attr unit m
par Scenario.node[0].nic.phy80211p antennaOffsetYaw 0rad
attr unit rad
par Scenario.node[0].nic.phy80211p analogueModels "<root>...</root> at /home/vagrant/spe-homework-project/Project/simulations//config_3.xml:2"
par Scenario.node[0].nic.phy80211p decider "<root>...</root> at /home/vagrant/spe-homework-project/Project/simulations//config_3.xml:2"
par Scenario.node[0].nic.phy80211p minPowerLevel -110dBm
attr unit dBm
par Scenario.node[0].nic.phy80211p timeRXToTX 0s
attr unit s
par Scenario.node[0].nic.phy80211p timeRXToSleep 0s
attr unit s
par Scenario.node[0].nic.phy80211p timeTXToRX 0s
attr unit s
par Scenario.node[0].nic.phy80211p timeTXToSleep 0s
attr unit s
par Scenario.node[0].nic.phy80211p timeSleepToRX 0s
attr unit s
par Scenario.node[0].nic.phy80211p timeSleepToTX 0s
attr unit s
par Scenario.node[0].nic.phy80211p initialRadioState 0
par Scenario.node[0].nic.phy80211p radioMinAtt 1
par Scenario.node[0].nic.phy80211p radioMaxAtt 0
par Scenario.node[0].nic.phy80211p nbRadioChannels 1
par Scenario.node[0].nic.phy80211p initialRadioChannel 0
par Scenario.node[0].nic.phy80211p ccaThreshold -65dBm
attr unit dBm
par Scenario.node[0].nic.phy80211p collectCollisionStatistics false
par Scenario.node[0].nic.phy80211p allowTxDuringRx false
scalar Scenario.node[0].nic.phy80211p busyTime 0.0084295161290319
par Scenario.node[0].nic.mac1609_4 typename "\"org.car2x.veins.modules.mac.ieee80211p.Mac1609_4\""
par Scenario.node[0].nic.mac1609_4 notAffectedByHostState false
par Scenario.node[0].nic.mac1609_4 headerLength 0bit
attr unit bit
par Scenario.node[0].nic.mac1609_4 address "\"auto\""
par Scenario.node[0].nic.mac1609_4 useServiceChannel false
par Scenario.node[0].nic.mac1609_4 serviceChannel 1
par Scenario.node[0].nic.mac1609_4 bitrate 6000000bps
attr unit bps
par Scenario.node[0].nic.mac1609_4 syncOffset 0.0003s
attr unit s
par Scenario.node[0].nic.mac1609_4 txPower 20mW
attr unit mW
par Scenario.node[0].nic.mac1609_4 queueSize 0
par Scenario.node[0].nic.mac1609_4 dot11RTSThreshold 12000bit
attr unit bit
par Scenario.node[0].nic.mac1609_4 dot11ShortRetryLimit 7
par Scenario.node[0].nic.mac1609_4 dot11LongRetryLimit 4
par Scenario.node[0].nic.mac1609_4 ackLength 112bit
attr unit bit
par Scenario.node[0].nic.mac1609_4 useAcks false
par Scenario.node[0].nic.mac1609_4 frameErrorRate 0
par Scenario.node[0].nic.mac1609_4 ackErrorRate 0
scalar Scenario.node[0].nic.mac1609_4 ReceivedUnicastPackets 0
scalar Scenario.node[0].nic.mac1609_4 ReceivedBroadcasts 3484
scalar Scenario.node[0].nic.mac1609_4 SentPackets 497
scalar Scenario.node[0].nic.mac1609_4 SentAcknowledgements 0
scalar Scenario.node[0].nic.mac1609_4 RetriesExceeded 0
scalar Scenario.node[0].nic.mac1609_4 SNIRLostPackets 519
scalar Scenario.node[0].nic.mac1609_4 RXTXLostPackets 0
scalar Scenario.node[0].nic.mac1609_4 TotalLostPackets 519
scalar Scenario.node[0].nic.mac1609_4 DroppedPacketsInMac 0
scalar Scenario.node[0].nic.mac1609_4 TooLittleTime 0
scalar Scenario.node[0].nic.mac1609_4 TimesIntoBackoff 497
scalar Scenario.node[0].nic.mac1609_4 SlotsBackoff 768
scalar Scenario.node[0].nic.mac1609_4 NumInternalContention 0
scalar Scenario.node[0].nic.mac1609_4 totalBusyTime 0.470417
scalar Scenario.node[0].nic.mac1609_4 retriesExceeded:count 0
attr recordingmode count
attr source org_car2x_veins_modules_mac_sigRetriesExceeded
scalar Scenario.node[0].nic.mac1609_4 sentAcks:count 0
attr recordingmode count
attr source org_car2x_veins_modules_mac_sigSentAck
scalar Scenario.node[0].nic.mac1609_4 sentPackets:count 497
attr recordingmode count
attr source org_car2x_veins_modules_mac_sigSentPacket
scalar Scenario.node[0].nic.mac1609_4 collisions:count 0
attr recordingmode count
attr source org_car2x_veins_modules_mac_sigCollision
scalar Scenario.node[0].nic.mac1609_4 channelBusy:timeavg 0.0094842137096771
attr recordingmode timeavg
attr source org_car2x_veins_modules_mac_sigChannelBusy
par Scenario.node[0].nic typename "\"org.car2x.veins.modules.nic.Nic80211p\""
par Scenario.node[0].nic connectionManagerName "\"connectionManager\""
par Scenario.node[0].veinsmobility typename "\"org.car2x.veins.modules.mobility.traci.TraCIMobility\""
par Scenario.node[0].veinsmobility notAffectedByHostState true
par Scenario.node[0].veinsmobility x 0
par Scenario.node[0].veinsmobility y 0
par Scenario.node[0].veinsmobility z 1.895
par Scenario.node[0].veinsmobility xOrientation 1
par Scenario.node[0].veinsmobility yOrientation 0
par Scenario.node[0].veinsmobility zOrientation 0
par Scenario.node[0].veinsmobility hostPositionOffset 0m
attr unit m
par Scenario.node[0].veinsmobility setHostSpeed false
par Scenario.node[0].veinsmobility accidentCount 0
par Scenario.node[0].veinsmobility accidentStart 59.0109s
attr unit s
par Scenario.node[0].veinsmobility accidentDuration "uniform(30s, 60s)"
attr unit s
par Scenario.node[0].veinsmobility accidentInterval "uniform(30s, 60s)"
attr unit s
scalar Scenario.node[0].veinsmobility startTime 0.1
scalar Scenario.node[0].veinsmobility totalTime 49.5
scalar Scenario.node[0].veinsmobility stopTime 49.7
scalar Scenario.node[0].veinsmobility minSpeed 0.25628130026674
scalar Scenario.node[0].veinsmobility maxSpeed 14.14552093824
scalar Scenario.node[0].veinsmobility totalDistance 570.12252230492
scalar Scenario.node[0].veinsmobility totalCO2Emission 163.53841015803
par Scenario.node[0] typename "\"org.car2x.veins.nodes.Car\""
par Scenario.node[0] applType "\"TraCIDemo11p\""
par Scenario.node[0] nicType "\"Nic80211p\""
par Scenario.node[0] veinsmobilityType "\"org.car2x.veins.modules.mobility.traci.TraCIMobility\""
par Scenario.node[1].appl typename "\"org.car2x.veins.modules.application.traci.TraCIDemo11p\""
par Scenario.node[1].appl headerLength 80bit
attr unit bit
par Scenario.node[1].appl sendBeacons true
par Scenario.node[1].appl beaconLengthBits 256bit
attr unit bit
par Scenario.node[1].appl beaconUserPriority 7
par Scenario.node[1].appl beaconInterval 0.1s
attr unit s
par Scenario.node[1].appl dataLengthBits 1024bit
attr unit bit
par Scenario.node[1].appl dataOnSch false
par Scenario.node[1].appl dataUserPriority 7
par Scenario.node[1].appl avoidBeaconSynchronization true
par Scenario.node[1].appl sendWSA false
par Scenario.node[1].appl wsaLengthBits 250bit
attr unit bit
par Scenario.node[1].appl wsaInterval 1s
attr unit s
scalar Scenario.node[1].appl generatedWSMs 1
scalar Scenario.node[1].appl receivedWSMs 16
scalar Scenario.node[1].appl generatedBSMs 499
scalar Scenario.node[1].appl receivedBSMs 4840
scalar Scenario.node[1].appl generatedWSAs 0
scalar Scenario.node[1].appl receivedWSAs 0
par Scenario.node[1].nic.phy80211p typename "\"org.car2x.veins.modules.phy.PhyLayer80211p\""
par Scenario.node[1].nic.phy80211p recordStats false
par Scenario.node[1].nic.phy80211p usePropagationDelay true
par Scenario.node[1].nic.phy80211p noiseFloor -98dBm
attr unit dBm
par Scenario.node[1].nic.phy80211p useNoiseFloor true
par Scenario.node[1].nic.phy80211p antenna "<root>...</root> at content:1"
par Scenario.node[1].nic.phy80211p antennaOffsetX 0m
attr unit m
par Scenario.node[1].nic.phy80211p antennaOffsetY 0m
attr unit m
par Scenario.node[1].nic.phy80211p antennaOffsetZ 1.895m
attr unit m
par Scenario.node[1].nic.phy80211p antennaOffsetYaw 0rad
attr unit rad
par Scenario.node[1].nic.phy80211p analogueModels "<root>...</root> at /home/vagrant/spe-homework-project/Project/simulations//config_3.xml:2"
par Scenario.node[1].nic.phy80211p decider "<root>...</root> at /home/vagrant/spe-homework-project/Project/simulations//config_3.xml:2"
par Scenario.node[1].nic.phy80211p minPowerLevel -110dBm
attr unit dBm
par Scenario.node[1].nic.phy80211p timeRXToTX 0s
attr unit s
par Scenario.node[1].nic.phy80211p timeRXToSleep 0s
attr unit s
par Scenario.node[1].nic.phy80211p timeTXToRX 0s
attr unit s
par Scenario.node[1].nic.phy80211p timeTXToSleep 0s
attr unit s
par Scenario.node[1].nic.phy80211p timeSleepToRX 0s
attr unit s
par Scenario.node[1].nic.phy80211p timeSleepToTX 0s
attr unit s
par Scenario.node[1].nic.phy80211p initialRadioState 0
par Scenario.node[1].nic.phy80211p radioMinAtt 1
par Scenario.node[1].nic.phy80211p radioMaxAtt 0
par Scenario.node[1].nic.phy80211p nbRadioChannels 1
par Scenario.node[1].nic.phy80211p initialRadioChannel 0
par Scenario.node[1].nic.phy80211p ccaThreshold -65dBm
attr unit dBm
par Scenario.node[1].nic.phy80211p collectCollisionStatistics false
par Scenario.node[1].nic.phy80211p allowTxDuringRx false
scalar Scenario.node[1].nic.phy80211p busyTime 0.011161523046092
par Scenario.node[1].nic.mac1609_4 typename "\"org.car2x.veins.modules.mac.ieee80211p.Mac1609_4\""
par Scenario.node[1].nic.mac1609_4 notAffectedByHostState false
par Scenario.node[1].nic.mac1609_4 headerLength 0bit
attr unit bit
par Scenario.node[1].nic.mac1609_4 address "\"auto\""
par Scenario.node[1].nic.mac1609_4 useServiceChannel false
par Scenario.node[1].nic.mac1609_4 serviceChannel 1
par Scenario.node[1].nic.mac1609_4 bitrate 6000000bps
attr unit bps
par Scenario.node[1].nic.mac1609_4 syncOffset 0.0003s
attr unit s
par Scenario.node[1].nic.mac1609_4 txPower 20mW
attr unit mW
par Scenario.node[1].nic.mac1609_4 queueSize 0
par Scenario.node[1].nic.mac1609_4 dot11RTSThreshold 12000bit
attr unit bit
par Scenario.node[1].nic.mac1609_4 dot11ShortRetryLimit 7
par Scenario.node[1].nic.mac1609_4 dot11LongRetryLimit 4
par Scenario.node[1].nic.mac1609_4 ackLength 112bit
attr unit bit
par Scenario.node[1].nic.mac1609_4 useAcks false
par Scenario.node[1].nic.mac1609_4 frameErrorRate 0
par Scenario.node[1].nic.mac1609_4 ackErrorRate 0
scalar Scenario.node[1].nic.mac1609_4 ReceivedUnicastPackets 0
scalar Scenario.node[1].nic.mac1609_4 ReceivedBroadcasts 4856
scalar Scenario.node[1].nic.mac1609_4 SentPackets 500
scalar Scenario.node[1].nic.mac1609_4 SentAcknowledgements 0
scalar Scenario.node[1].nic.mac1609_4 RetriesExceeded 0
scalar Scenario.node[1].nic.mac1609_4 SNIRLostPackets 476
scalar Scenario.node[1].nic.mac1609_4 RXTXLostPackets 0
scalar Scenario.node[1].nic.mac1609_4 TotalLostPackets 476
scalar Scenario.node[1].nic.mac1609_4 DroppedPacketsInMac 0
scalar Scenario.node[1].nic.mac1609_4 TooLittleTime 0
scalar Scenario.node[1].nic.mac1609_4 TimesIntoBackoff 500
scalar Scenario.node[1].nic.mac1609_4 SlotsBackoff 739
scalar Scenario.node[1].nic.mac1609_4 NumInternalContention 0
scalar Scenario.node[1].nic.mac1609_4 totalBusyTime 0.609588
scalar Scenario.node[1].nic.mac1609_4 retriesExceeded:count 0
attr recordingmode count
attr source org_car2x_veins_modules_mac_sigRetriesExceeded
scalar Scenario.node[1].nic.mac1609_4 sentAcks:count 0
attr recordingmode count
attr source org_car2x_veins_modules_mac_sigSentAck
scalar Scenario.node[1].nic.mac1609_4 sentPackets:count 500
attr recordingmode count
attr source org_car2x_veins_modules_mac_sigSentPacket
scalar Scenario.node[1].nic.mac1609_4 collisions:count 0
attr recordingmode count
attr source org_car2x_veins_modules_mac_sigCollision
scalar Scenario.node[1].nic.mac1609_4 channelBusy:timeavg 0.012216192384769
attr recordingmode timeavg
attr source org_car2x_veins_modules_mac_sigChannelBusy
par Scenario.node[1].nic typename "\"org.car2x.veins.modules.nic.Nic80211p\""
par Scenario.node[1].nic connectionManagerName "\"connectionManager\""
par Scenario.node[1].veinsmobility typename "\"org.car2x.veins.modules.mobility.traci.TraCIMobility\""
par Scenario.node[1].veinsmobility notAffectedByHostState true
par Scenario.node[1].veinsmobility x 0
par Scenario.node[1].veinsmobility y 0
par Scenario.node[1].veinsmobility z 1.895
par Scenario.node[1].veinsmobility xOrientation 1
par Scenario.node[1].veinsmobility yOrientation 0
par Scenario.node[1].veinsmobility zOrientation 0
par Scenario.node[1].veinsmobility hostPositionOffset 0m
attr unit m
par Scenario.node[1].veinsmobility setHostSpeed false
par Scenario.node[1].veinsmobility accidentCount 0
par Scenario.node[1].veinsmobility accidentStart 50.9526s
attr unit s
par Scenario.node[1].veinsmobility accidentDuration "uniform(30s, 60s)"
attr unit s
par Scenario.node[1].veinsmobility accidentInterval "uniform(30s, 60s)"
attr unit s
scalar Scenario.node[1].veinsmobility startTime 1.1
scalar Scenario.node[1].veinsmobility totalTime 49.8
scalar Scenario.node[1].veinsmobility stopTime 51
scalar Scenario.node[1].veinsmobility minSpeed 0.00085482919139786
scalar Scenario.node[1].veinsmobility maxSpeed 16.00364357344
scalar Scenario.node[1].veinsmobility totalDistance 425.79099619873
scalar Scenario.node[1].veinsmobility totalCO2Emission 165.75706946817
par Scenario.node[1] typename "\"org.car2x.veins.nodes.Car\""
par Scenario.node[1] applType "\"TraCIDemo11p\""
par Scenario.node[1] nicType "\"Nic80211p\""
par Scenario.node[1] veinsmobilityType "\"org.car2x.veins.modules.mobility.traci.TraCIMobility\""
par Scenario.node[10].appl typename "\"org.car2x.veins.modules.application.traci.TraCIDemo11p\""
par Scenario.node[10].appl headerLength 80bit
attr unit bit
par Scenario.node[10].appl sendBeacons true
par Scenario.node[10].appl beaconLengthBits 256bit
attr unit bit
par Scenario.node[10].appl beaconUserPriority 7
par Scenario.node[10].appl beaconInterval 0.1s
attr unit s
par Scenario.node[10].appl dataLengthBits 1024bit
attr unit bit
par Scenario.node[10].appl dataOnSch false
par Scenario.node[10].appl dataUserPriority 7
par Scenario.node[10].appl avoidBeaconSynchronization true
par Scenario.node[10].appl sendWSA false
par Scenario.node[10].appl wsaLengthBits 250bit
attr unit bit
par Scenario.node[10].appl wsaInterval 1s
attr unit s
scalar Scenario.node[10].appl generatedWSMs 1
scalar Scenario.node[10].appl receivedWSMs 24
scalar Scenario.node[10].appl generatedBSMs 409
scalar Scenario.node[10].appl receivedBSMs 4764
scalar Scenario.node[10].appl generatedWSAs 0
scalar Scenario.node[10].appl receivedWSAs 0
par Scenario.node[10].nic.phy80211p typename "\"org.car2x.veins.modules.phy.PhyLayer80211p\""
par Scenario.node[10].nic.phy80211p recordStats false
par Scenario.node[10].nic.phy80211p usePropagationDelay true
par Scenario.node[10].nic.phy80211p noiseFloor -98dBm
attr unit dBm
par Scenario.node[10].nic.phy80211p useNoiseFloor true
par Scenario.node[10].nic.phy80211p antenna "<root>...</root> at content:1"
par Scenario.node[10].nic.phy80211p antennaOffsetX 0m
attr unit m
par Scenario.node[10].nic.phy80211p antennaOffsetY 0m
attr unit m
par Scenario.node[10].nic.phy80211p antennaOffsetZ 1.895m
attr unit m
par Scenario.node[10].nic.phy80211p antennaOffsetYaw 0rad
attr unit rad
par Scenario.node[10].nic.phy80211p analogueModels "<root>...</root> at /home/vagrant/spe-homework-project/Project/simulations//config_3.xml:2"
par Scenario.node[10].nic.phy80211p decider "<root>...</root> at /home/vagrant/spe-homework-project/Project/simulations//config_3.xml:2"
par Scenario.node[10].nic.phy80211p minPowerLevel -110dBm
attr unit dBm
par Scenario.node[10].nic.phy80211p timeRXToTX 0s
attr unit s
par Scenario.node[10].nic.phy80211p timeRXToSleep 0s
attr unit s
par Scenario.node[10].nic.phy80211p timeTXToRX 0s
attr unit s
par Scenario.node[10].nic.phy80211p timeTXToSleep 0s
attr unit s
par Scenario.node[10].nic.phy80211p timeSleepToRX 0s
attr unit s
par Scenario.node[10].nic.phy80211p timeSleepToTX 0s
attr unit s
par Scenario.node[10].nic.phy80211p initialRadioState 0
par Scenario.node[10].nic.phy80211p radioMinAtt 1
par Scenario.node[10].nic.phy80211p radioMaxAtt 0
par Scenario.node[10].nic.phy80211p nbRadioChannels 1
par Scenario.node[10].nic.phy80211p initialRadioChannel 0
par Scenario.node[10].nic.phy80211p ccaThreshold -65dBm
attr unit dBm
par Scenario.node[10].nic.phy80211p collectCollisionStatistics false
par Scenario.node[10].nic.phy80211p allowTxDuringRx false
scalar Scenario.node[10].nic.phy80211p busyTime 0.013900831295843
par Scenario.node[10].nic.mac1609_4 typename "\"org.car2x.veins.modules.mac.ieee80211p.Mac1609_4\""
par Scenario.node[10].nic.mac1609_4 notAffectedByHostState false
par Scenario.node[10].nic.mac1609_4 headerLength 0bit
attr unit bit
par Scenario.node[10].nic.mac1609_4 address "\"auto\""
par Scenario.node[10].nic.mac1609_4 useServiceChannel false
par Scenario.node[10].nic.mac1609_4 serviceChannel 1
par Scenario.node[10].nic.mac1609_4 bitrate 6000000bps
attr unit bps
par Scenario.node[10].nic.mac1609_4 syncOffset 0.0003s
attr unit s
par Scenario.node[10].nic.mac1609_4 txPower 20mW
attr unit mW
par Scenario.node[10].nic.mac1609_4 queueSize 0
par Scenario.node[10].nic.mac1609_4 dot11RTSThreshold 12000bit
attr unit bit
par Scenario.node[10].nic.mac1609_4 dot11ShortRetryLimit 7
par Scenario.node[10].nic.mac1609_4 dot11LongRetryLimit 4
par Scenario.node[10].nic.mac1609_4 ackLength 112bit
attr unit bit
par Scenario.node[10].nic.mac1609_4 useAcks false
par Scenario.node[10].nic.mac1609_4 frameErrorRate 0
par Scenario.node[10].nic.mac1609_4 ackErrorRate 0
scalar Scenario.node[10].nic.mac1609_4 ReceivedUnicastPackets 0
scalar Scenario.node[10].nic.mac1609_4 ReceivedBroadcasts 4788
scalar Scenario.node[10].nic.mac1609_4 SentPackets 410
scalar Scenario.node[10].nic.mac1609_4 SentAcknowledgements 0
scalar Scenario.node[10].nic.mac1609_4 RetriesExceeded 0
scalar Scenario.node[10].nic.mac1609_4 SNIRLostPackets 648
scalar Scenario.node[10].nic.mac1609_4 RXTXLostPackets 0
scalar Scenario.node[10].nic.mac1609_4 TotalLostPackets 648
scalar Scenario.node[10].nic.mac1609_4 DroppedPacketsInMac 0
scalar Scenario.node[10].nic.mac1609_4 TooLittleTime 0
scalar Scenario.node[10].nic.mac1609_4 TimesIntoBackoff 410
scalar Scenario.node[10].nic.mac1609_4 SlotsBackoff 607
scalar Scenario.node[10].nic.mac1609_4 NumInternalContention 0
scalar Scenario.node[10].nic.mac1609_4 totalBusyTime 0.611722
scalar Scenario.node[10].nic.mac1609_4 retriesExceeded:count 0
attr recordingmode count
attr source org_car2x_veins_modules_mac_sigRetriesExceeded
scalar Scenario.node[10].nic.mac1609_4 sentAcks:count 0
attr recordingmode count
attr source org_car2x_veins_modules_mac_sigSentAck
scalar Scenario.node[10].nic.mac1609_4 sentPackets:count 410
attr recordingmode count
attr source org_car2x_veins_modules_mac_sigSentPacket
scalar Scenario.node[10].nic.mac1609_4 collisions:count 0
attr recordingmode count
attr source org_car2x_veins_modules_mac_sigCollision
scalar Scenario.node[10].nic.mac1609_4 channelBusy:timeavg 0.014956528117359
attr recordingmode timeavg
attr source org_car2x_veins_modules_mac_sigChannelBusy
par Scenario.node[10].nic typename "\"org.car2x.veins.modules.nic.Nic80211p\""
par Scenario.node[10].nic connectionManagerName "\"connectionManager\""
par Scenario.node[10].veinsmobility typename "\"org.car2x.veins.modules.mobility.traci.TraCIMobility\""
par Scenario.node[10].veinsmobility notAffectedByHostState true
par Scenario.node[10].veinsmobility x 0
par Scenario.node[10].veinsmobility y 0
par Scenario.node[10].veinsmobility z 1.895
par Scenario.node[10].veinsmobility xOrientation 1
par Scenario.node[10].veinsmobility yOrientation 0
par Scenario.node[10].veinsmobility zOrientation 0
par Scenario.node[10].veinsmobility hostPositionOffset 0m
attr unit m
par Scenario.node[10].veinsmobility setHostSpeed false
par Scenario.node[10].veinsmobility accidentCount 0
par Scenario.node[10].veinsmobility accidentStart 41.4038s
attr unit s
par Scenario.node[10].veinsmobility accidentDuration "uniform(30s, 60s)"
attr unit s
par Scenario.node[10].veinsmobility accidentInterval "uniform(30s, 60s)"
attr unit s
scalar Scenario.node[10].veinsmobility startTime 11.1
scalar Scenario.node[10].veinsmobility totalTime 40.8
scalar Scenario.node[10].veinsmobility stopTime 52
scalar Scenario.node[10].veinsmobility minSpeed 0.2475197750791
scalar Scenario.node[10].veinsmobility maxSpeed 12.907713974309
scalar Scenario.node[10].veinsmobility totalDistance 428.09622011344
scalar Scenario.node[10].veinsmobility totalCO2Emission 128.39307888988
par Scenario.node[10] typename "\"org.car2x.veins.nodes.Car\""
par Scenario.node[10] applType "\"TraCIDemo11p\""
par Scenario.node[10] nicType "\"Nic80211p\""
par Scenario.node[10] veinsmobilityType "\"org.car2x.veins.modules.mobility.traci.TraCIMobility\""
par Scenario.node[2].appl typename "\"org.car2x.veins.modules.application.traci.TraCIDemo11p\""
par Scenario.node[2].appl headerLength 80bit
attr unit bit
par Scenario.node[2].appl sendBeacons true
par Scenario.node[2].appl beaconLengthBits 256bit
attr unit bit
par Scenario.node[2].appl beaconUserPriority 7
par Scenario.node[2].appl beaconInterval 0.1s
attr unit s
par Scenario.node[2].appl dataLengthBits 1024bit
attr unit bit
par Scenario.node[2].appl dataOnSch false
par Scenario.node[2].appl dataUserPriority 7
par Scenario.node[2].appl avoidBeaconSynchronization true
par Scenario.node[2].appl sendWSA false
par Scenario.node[2].appl wsaLengthBits 250bit
attr unit bit
par Scenario.node[2].appl wsaInterval 1s
attr unit s
scalar Scenario.node[2].appl generatedWSMs 1
scalar Scenario.node[2].appl receivedWSMs 22
scalar Scenario.node[2].appl generatedBSMs 530
scalar Scenario.node[2].appl receivedBSMs 5290
scalar Scenario.node[2].appl generatedWSAs 0
scalar Scenario.node[2].appl receivedWSAs 0
par Scenario.node[2].nic.phy80211p typename "\"org.car2x.veins.modules.phy.PhyLayer80211p\""
par Scenario.node[2].nic.phy80211p recordStats false
par Scenario.node[2].nic.phy80211p usePropagationDelay true
par Scenario.node[2].nic.phy80211p noiseFloor -98dBm
attr unit dBm
par Scenario.node[2].nic.phy80211p useNoiseFloor true
par Scenario.node[2].nic.phy80211p antenna "<root>...</root> at content:1"
par Scenario.node[2].nic.phy80211p antennaOffsetX 0m
attr unit m
par Scenario.node[2].nic.phy80211p antennaOffsetY 0m
attr unit m
par Scenario.node[2].nic.phy80211p antennaOffsetZ 1.895m
attr unit m
par Scenario.node[2].nic.phy80211p antennaOffsetYaw 0rad
attr unit rad
par Scenario.node[2].nic.phy80211p analogueModels "<root>...</root> at /home/vagrant/spe-homework-project/Project/simulations//config_3.xml:2"
par Scenario.node[2].nic.phy80211p decider "<root>...</root> at /home/vagrant/spe-homework-project/Project/simulations//config_3.xml:2"
par Scenario.node[2].nic.phy80211p minPowerLevel -110dBm
attr unit dBm
par Scenario.node[2].nic.phy80211p timeRXToTX 0s
attr unit s
par Scenario.node[2].nic.phy80211p timeRXToSleep 0s
attr unit s
par Scenario.node[2].nic.phy80211p timeTXToRX 0s
attr unit s
par Scenario.node[2].nic.phy80211p timeTXToSleep 0s
attr unit s
par Scenario.node[2].nic.phy80211p timeSleepToRX 0s
attr unit s
par Scenario.node[2].nic.phy80211p timeSleepToTX 0s
attr unit s
par Scenario.node[2].nic.phy80211p initialRadioState 0
par Scenario.node[2].nic.phy80211p radioMinAtt 1
par Scenario.node[2].nic.phy80211p radioMaxAtt 0
par Scenario.node[2].nic.phy80211p nbRadioChannels 1
par Scenario.node[2].nic.phy80211p initialRadioChannel 0
par Scenario.node[2].nic.phy80211p ccaThreshold -65dBm
attr unit dBm
par Scenario.node[2].nic.phy80211p collectCollisionStatistics false
par Scenario.node[2].nic.phy80211p allowTxDuringRx false
scalar Scenario.node[2].nic.phy80211p busyTime 0.01191879245283
par Scenario.node[2].nic.mac1609_4 typename "\"org.car2x.veins.modules.mac.ieee80211p.Mac1609_4\""
par Scenario.node[2].nic.mac1609_4 notAffectedByHostState false
par Scenario.node[2].nic.mac1609_4 headerLength 0bit
attr unit bit
par Scenario.node[2].nic.mac1609_4 address "\"auto\""
par Scenario.node[2].nic.mac1609_4 useServiceChannel false
par Scenario.node[2].nic.mac1609_4 serviceChannel 1
par Scenario.node[2].nic.mac1609_4 bitrate 6000000bps
attr unit bps
par Scenario.node[2].nic.mac1609_4 syncOffset 0.0003s
attr unit s
par Scenario.node[2].nic.mac1609_4 txPower 20mW
attr unit mW
par Scenario.node[2].nic.mac1609_4 queueSize 0
par Scenario.node[2].nic.mac1609_4 dot11RTSThreshold 12000bit
attr unit bit
par Scenario.node[2].nic.mac1609_4 dot11ShortRetryLimit 7
par Scenario.node[2].nic.mac1609_4 dot11LongRetryLimit 4
par Scenario.node[2].nic.mac1609_4 ackLength 112bit
attr unit bit
par Scenario.node[2].nic.mac1609_4 useAcks false
par Scenario.node[2].nic.mac1609_4 frameErrorRate 0
par Scenario.node[2].nic.mac1609_4 ackErrorRate 0
scalar Scenario.node[2].nic.mac1609_4 ReceivedUnicastPackets 0
scalar Scenario.node[2].nic.mac1609_4 ReceivedBroadcasts 5312
scalar Scenario.node[2].nic.mac1609_4 SentPackets 531
scalar Scenario.node[2].nic.mac1609_4 SentAcknowledgements 0
scalar Scenario.node[2].nic.mac1609_4 RetriesExceeded 0
scalar Scenario.node[2].nic.mac1609_4 SNIRLostPackets 730
scalar Scenario.node[2].nic.mac1609_4 RXTXLostPackets 0
scalar Scenario.node[2].nic.mac1609_4 TotalLostPackets 730
scalar Scenario.node[2].nic.mac1609_4 DroppedPacketsInMac 0
scalar Scenario.node[2].nic.mac1609_4 TooLittleTime 0
scalar Scenario.node[2].nic.mac1609_4 TimesIntoBackoff 531
scalar Scenario.node[2].nic.mac1609_4 SlotsBackoff 790
scalar Scenario.node[2].nic.mac1609_4 NumInternalContention 0
scalar Scenario.node[2].nic.mac1609_4 totalBusyTime 0.68579423034
scalar Scenario.node[2].nic.mac1609_4 retriesExceeded:count 0
attr recordingmode count
attr source org_car2x_veins_modules_mac_sigRetriesExceeded
scalar Scenario.node[2].nic.mac1609_4 sentAcks:count 0
attr recordingmode count
attr source org_car2x_veins_modules_mac_sigSentAck
scalar Scenario.node[2].nic.mac1609_4 sentPackets:count 531
attr recordingmode count
attr source org_car2x_veins_modules_mac_sigSentPacket
scalar Scenario.node[2].nic.mac1609_4 collisions:count 0
attr recordingmode count
attr source org_car2x_veins_modules_mac_sigCollision
scalar Scenario.node[2].nic.mac1609_4 channelBusy:timeavg 0.012939513779999
attr recordingmode timeavg
attr source org_car2x_veins_modules_mac_sigChannelBusy
par Scenario.node[2].nic typename "\"org.car2x.veins.modules.nic.Nic80211p\""
par Scenario.node[2].nic connectionManagerName "\"connectionManager\""
par Scenario.node[2].veinsmobility typename "\"org.car2x.veins.modules.mobility.traci.TraCIMobility\""
par Scenario.node[2].veinsmobility notAffectedByHostState true
par Scenario.node[2].veinsmobility x 0
par Scenario.node[2].veinsmobility y 0
par Scenario.node[2].veinsmobility z 1.895
par Scenario.node[2].veinsmobility xOrientation 1
par Scenario.node[2].veinsmobility yOrientation 0
par Scenario.node[2].veinsmobility zOrientation 0
par Scenario.node[2].veinsmobility hostPositionOffset 0m
attr unit m
par Scenario.node[2].veinsmobility setHostSpeed false
par Scenario.node[2].veinsmobility accidentCount 0
par Scenario.node[2].veinsmobility accidentStart 56.865s
attr unit s
par Scenario.node[2].veinsmobility accidentDuration "uniform(30s, 60s)"
attr unit s
par Scenario.node[2].veinsmobility accidentInterval "uniform(30s, 60s)"
attr unit s
scalar Scenario.node[2].veinsmobility startTime 2.1
scalar Scenario.node[2].veinsmobility totalTime 52.9
scalar Scenario.node[2].veinsmobility stopTime 55.1
scalar Scenario.node[2].veinsmobility minSpeed 0
scalar Scenario.node[2].veinsmobility maxSpeed 16.142690194621
scalar Scenario.node[2].veinsmobility totalDistance 576.87189658026
scalar Scenario.node[2].veinsmobility totalCO2Emission 204.57072469523
par Scenario.node[2] typename "\"org.car2x.veins.nodes.Car\""
par Scenario.node[2] applType "\"TraCIDemo11p\""
par Scenario.node[2] nicType "\"Nic80211p\""
par Scenario.node[2] veinsmobilityType "\"org.car2x.veins.modules.mobility.traci.TraCIMobility\""
par Scenario.node[8].appl typename "\"org.car2x.veins.modules.application.traci.TraCIDemo11p\""
par Scenario.node[8].appl headerLength 80bit
attr unit bit
par Scenario.node[8].appl sendBeacons true
par Scenario.node[8].appl beaconLengthBits 256bit
attr unit bit
par Scenario.node[8].appl beaconUserPriority 7
par Scenario.node[8].appl beaconInterval 0.1s
attr unit s
par Scenario.node[8].appl dataLengthBits 1024bit
attr unit bit
par Scenario.node[8].appl dataOnSch false
par Scenario.node[8].appl dataUserPriority 7
par Scenario.node[8].appl avoidBeaconSynchronization true
par Scenario.node[8].appl sendWSA false
par Scenario.node[8].appl wsaLengthBits 250bit
attr unit bit
par Scenario.node[8].appl wsaInterval 1s
attr unit s
scalar Scenario.node[8].appl generatedWSMs 1
scalar Scenario.node[8].appl receivedWSMs 19
scalar Scenario.node[8].appl generatedBSMs 564
scalar Scenario.node[8].appl receivedBSMs 6074
scalar Scenario.node[8].appl generatedWSAs 0
scalar Scenario.node[8].appl receivedWSAs 0
par Scenario.node[8].nic.phy80211p typename "\"org.car2x.veins.modules.phy.PhyLayer80211p\""
par Scenario.node[8].nic.phy80211p recordStats false
par Scenario.node[8].nic.phy80211p usePropagationDelay true
par Scenario.node[8].nic.phy80211p noiseFloor -98dBm
attr unit dBm
par Scenario.node[8].nic.phy80211p useNoiseFloor true
par Scenario.node[8].nic.phy80211p antenna "<root>...</root> at content:1"
par Scenario.node[8].nic.phy80211p antennaOffsetX 0m
attr unit m
par Scenario.node[8].nic.phy80211p antennaOffsetY 0m
attr unit m
par Scenario.node[8].nic.phy80211p antennaOffsetZ 1.895m
attr unit m
par Scenario.node[8].nic.phy80211p antennaOffsetYaw 0rad
attr unit rad
par Scenario.node[8].nic.phy80211p analogueModels "<root>...</root> at /home/vagrant/spe-homework-project/Project/simulations//config_3.xml:2"
par Scenario.node[8].nic.phy80211p decider "<root>...</root> at /home/vagrant/spe-homework-project/Project/simulations//config_3.xml:2"
par Scenario.node[8].nic.phy80211p minPowerLevel -110dBm
attr unit dBm
par Scenario.node[8].nic.phy80211p timeRXToTX 0s
attr unit s
par Scenario.node[8].nic.phy80211p timeRXToSleep 0s
attr unit s
par Scenario.node[8].nic.phy80211p timeTXToRX 0s
attr unit s
par Scenario.node[8].nic.phy80211p timeTXToSleep 0s
attr unit s
par Scenario.node[8].nic.phy80211p timeSleepToRX 0s
attr unit s
par Scenario.node[8].nic.phy80211p timeSleepToTX 0s
attr unit s
par Scenario.node[8].nic.phy80211p initialRadioState 0
par Scenario.node[8].nic.phy80211p radioMinAtt 1
par Scenario.node[8].nic.phy80211p radioMaxAtt 0
par Scenario.node[8].nic.phy80211p nbRadioChannels 1
par Scenario.node[8].nic.phy80211p initialRadioChannel 0
par Scenario.node[8].nic.phy80211p ccaThreshold -65dBm
attr unit dBm
par Scenario.node[8].nic.phy80211p collectCollisionStatistics false
par Scenario.node[8].nic.phy80211p allowTxDuringRx false
scalar Scenario.node[8].nic.phy80211p busyTime 0.012726808510638
par Scenario.node[8].nic.mac1609_4 typename "\"org.car2x.veins.modules.mac.ieee80211p.Mac1609_4\""
par Scenario.node[8].nic.mac1609_4 notAffectedByHostState false
par Scenario.node[8].nic.mac1609_4 headerLength 0bit
attr unit bit
par Scenario.node[8].nic.mac1609_4 address "\"auto\""
par Scenario.node[8].nic.mac1609_4 useServiceChannel false
par Scenario.node[8].nic.mac1609_4 serviceChannel 1
par Scenario.node[8].nic.mac1609_4 bitrate 6000000bps
attr unit bps
par Scenario.node[8].nic.mac1609_4 syncOffset 0.0003s
attr unit s
par Scenario.node[8].nic.mac1609_4 txPower 20mW
attr unit mW
par Scenario.node[8].nic.mac1609_4 queueSize 0
par Scenario.node[8].nic.mac1609_4 dot11RTSThreshold 12000bit
attr unit bit
par Scenario.node[8].nic.mac1609_4 dot11ShortRetryLimit 7
par Scenario.node[8].nic.mac1609_4 dot11LongRetryLimit 4
par Scenario.node[8].nic.mac1609_4 ackLength 112bit
attr unit bit
par Scenario.node[8].nic.mac1609_4 useAcks false
par Scenario.node[8].nic.mac1609_4 frameErrorRate 0
par Scenario.node[8].nic.mac1609_4 ackErrorRate 0
scalar Scenario.node[8].nic.mac1609_4 ReceivedUnicastPackets 0
scalar Scenario.node[8].nic.mac1609_4 ReceivedBroadcasts 6093
scalar Scenario.node[8].nic.mac1609_4 SentPackets 565
scalar Scenario.node[8].nic.mac1609_4 SentAcknowledgements 0
scalar Scenario.node[8].nic.mac1609_4 RetriesExceeded 0
scalar Scenario.node[8].nic.mac1609_4 SNIRLostPackets 783
scalar Scenario.node[8].nic.mac1609_4 RXTXLostPackets 0
scalar Scenario.node[8].nic.mac1609_4 TotalLostPackets 783
scalar Scenario.node[8].nic.mac1609_4 DroppedPacketsInMac 0
scalar Scenario.node[8].nic.mac1609_4 TooLittleTime 0
scalar Scenario.node[8].nic.mac1609_4 TimesIntoBackoff 565
scalar Scenario.node[8].nic.mac1609_4 SlotsBackoff 862
scalar Scenario.node[8].nic.mac1609_4 NumInternalContention 0
scalar Scenario.node[8].nic.mac1609_4 totalBusyTime 0.776829
scalar Scenario.node[8].nic.mac1609_4 retriesExceeded:count 0
attr recordingmode count
attr source org_car2x_veins_modules_mac_sigRetriesExceeded
scalar Scenario.node[8].nic.mac1609_4 sentAcks:count 0
attr recordingmode count
attr source org_car2x_veins_modules_mac_sigSentAck
scalar Scenario.node[8].nic.mac1609_4 sentPackets:count 565
attr recordingmode count
attr source org_car2x_veins_modules_mac_sigSentPacket
scalar Scenario.node[8].nic.mac1609_4 collisions:count 0
attr recordingmode count
attr source org_car2x_veins_modules_mac_sigCollision
scalar Scenario.node[8].nic.mac1609_4 channelBusy:timeavg 0.013773563829787
attr recordingmode timeavg
attr source org_car2x_veins_modules_mac_sigChannelBusy
par Scenario.node[8].nic typename "\"org.car2x.veins.modules.nic.Nic80211p\""
par Scenario.node[8].nic connectionManagerName "\"connectionManager\""
par Scenario.node[8].veinsmobility typename "\"org.car2x.veins.modules.mobility.traci.TraCIMobility\""
par Scenario.node[8].veinsmobility notAffectedByHostState true
par Scenario.node[8].veinsmobility x 0
par Scenario.node[8].veinsmobility y 0
par Scenario.node[8].veinsmobility z 1.895
par Scenario.node[8].veinsmobility xOrientation 1
par Scenario.node[8].veinsmobility yOrientation 0
par Scenario.node[8].veinsmobility zOrientation 0
par Scenario.node[8].veinsmobility hostPositionOffset 0m
attr unit m
par Scenario.node[8].veinsmobility setHostSpeed false
par Scenario.node[8].veinsmobility accidentCount 0
par Scenario.node[8].veinsmobility accidentStart 31.9171s
attr unit s
par Scenario.node[8].veinsmobility accidentDuration "uniform(30s, 60s)"
attr unit s
par Scenario.node[8].veinsmobility accidentInterval "uniform(30s, 60s)"
attr unit s
scalar Scenario.node[8].veinsmobility startTime 8.1
scalar Scenario.node[8].veinsmobility totalTime 56.3
scalar Scenario.node[8].veinsmobility stopTime 64.5
scalar Scenario.node[8].veinsmobility minSpeed 0.24742883966211
scalar Scenario.node[8].veinsmobility maxSpeed 14.175871214576
scalar Scenario.node[8].veinsmobility totalDistance 564.28253513647
scalar Scenario.node[8].veinsmobility totalCO2Emission 191.69569051635
par Scenario.node[8] typename "\"org.car2x.veins.nodes.Car\""
par Scenario.node[8] applType "\"TraCIDemo11p\""
par Scenario.node[8] nicType "\"Nic80211p\""
par Scenario.node[8] veinsmobilityType "\"org.car2x.veins.modules.mobility.traci.TraCIMobility\""
par Scenario.node[16].appl typename "\"org.car2x.veins.modules.application.traci.TraCIDemo11p\""
par Scenario.node[16].appl headerLength 80bit
attr unit bit
par Scenario.node[16].appl sendBeacons true
par Scenario.node[16].appl beaconLengthBits 256bit
attr unit bit
par Scenario.node[16].appl beaconUserPriority 7
par Scenario.node[16].appl beaconInterval 0.1s
attr unit s
par Scenario.node[16].appl dataLengthBits 1024bit
attr unit bit
par Scenario.node[16].appl dataOnSch false
par Scenario.node[16].appl dataUserPriority 7
par Scenario.node[16].appl avoidBeaconSynchronization true
par Scenario.node[16].appl sendWSA false
par Scenario.node[16].appl wsaLengthBits 250bit
attr unit bit
par Scenario.node[16].appl wsaInterval 1s
attr unit s
scalar Scenario.node[16].appl generatedWSMs 1
scalar Scenario.node[16].appl receivedWSMs 20
scalar Scenario.node[16].appl generatedBSMs 535
scalar Scenario.node[16].appl receivedBSMs 8291
scalar Scenario.node[16].appl generatedWSAs 0
scalar Scenario.node[16].appl receivedWSAs 0
par Scenario.node[16].nic.phy80211p typename "\"org.car2x.veins.modules.phy.PhyLayer80211p\""
par Scenario.node[16].nic.phy80211p recordStats false
par Scenario.node[16].nic.phy80211p usePropagationDelay true
par Scenario.node[16].nic.phy80211p noiseFloor -98dBm
attr unit dBm
par Scenario.node[16].nic.phy80211p useNoiseFloor true
par Scenario.node[16].nic.phy80211p antenna "<root>...</root> at content:1"
par Scenario.node[16].nic.phy80211p antennaOffsetX 0m
attr unit m
par Scenario.node[16].nic.phy80211p antennaOffsetY 0m
attr unit m
par Scenario.node[16].nic.phy80211p antennaOffsetZ 1.895m
attr unit m
par Scenario.node[16].nic.phy80211p antennaOffsetYaw 0rad
attr unit rad
par Scenario.node[16].nic.phy80211p analogueModels "<root>...</root> at /home/vagrant/spe-homework-project/Project/simulations//config_3.xml:2"
par Scenario.node[16].nic.phy80211p decider "<root>...</root> at /home/vagrant/spe-homework-project/Project/simulations//config_3.xml:2"
par Scenario.node[16].nic.phy80211p minPowerLevel -110dBm
attr unit dBm
par Scenario.node[16].nic.phy80211p timeRXToTX 0s
attr unit s
par Scenario.node[16].nic.phy80211p timeRXToSleep 0s
attr unit s
par Scenario.node[16].nic.phy80211p timeTXToRX 0s
attr unit s
par Scenario.node[16].nic.phy80211p timeTXToSleep 0s
attr unit s
par Scenario.node[16].nic.phy80211p timeSleepToRX 0s
attr unit s
par Scenario.node[16].nic.phy80211p timeSleepToTX 0s
attr unit s
par Scenario.node[16].nic.phy80211p initialRadioState 0
par Scenario.node[16].nic.phy80211p radioMinAtt 1
par Scenario.node[16].nic.phy80211p radioMaxAtt 0
par Scenario.node[16].nic.phy80211p nbRadioChannels 1
par Scenario.node[16].nic.phy80211p initialRadioChannel 0
par Scenario.node[16].nic.phy80211p ccaThreshold -65dBm
attr unit dBm
par Scenario.node[16].nic.phy80211p collectCollisionStatistics false
par Scenario.node[16].nic.phy80211p allowTxDuringRx false
scalar Scenario.node[16].nic.phy80211p busyTime 0.018040672897195
par Scenario.node[16].nic.mac1609_4 typename "\"org.car2x.veins.modules.mac.ieee80211p.Mac1609_4\""
par Scenario.node[16].nic.mac1609_4 notAffectedByHostState false
par Scenario.node[16].nic.mac1609_4 headerLength 0bit
attr unit bit
par Scenario.node[16].nic.mac1609_4 address "\"auto\""
par Scenario.node[16].nic.mac1609_4 useServiceChannel false
par Scenario.node[16].nic.mac1609_4 serviceChannel 1
par Scenario.node[16].nic.mac1609_4 bitrate 6000000bps
attr unit bps
par Scenario.node[16].nic.mac1609_4 syncOffset 0.0003s
attr unit s
par Scenario.node[16].nic.mac1609_4 txPower 20mW
attr unit mW
par Scenario.node[16].nic.mac1609_4 queueSize 0
par Scenario.node[16].nic.mac1609_4 dot11RTSThreshold 12000bit
attr unit bit
par Scenario.node[16].nic.mac1609_4 dot11ShortRetryLimit 7
par Scenario.node[16].nic.mac1609_4 dot11LongRetryLimit 4
par Scenario.node[16].nic.mac1609_4 ackLength 112bit
attr unit bit
par Scenario.node[16].nic.mac1609_4 useAcks false
par Scenario.node[16].nic.mac1609_4 frameErrorRate 0
par Scenario.node[16].nic.mac1609_4 ackErrorRate 0
scalar Scenario.node[16].nic.mac1609_4 ReceivedUnicastPackets 0
scalar Scenario.node[16].nic.mac1609_4 ReceivedBroadcasts 8311
scalar Scenario.node[16].nic.mac1609_4 SentPackets 536
scalar Scenario.node[16].nic.mac1609_4 SentAcknowledgements 0
scalar Scenario.node[16].nic.mac1609_4 RetriesExceeded 0
scalar Scenario.node[16].nic.mac1609_4 SNIRLostPackets 940
scalar Scenario.node[16].nic.mac1609_4 RXTXLostPackets 0
scalar Scenario.node[16].nic.mac1609_4 TotalLostPackets 940
scalar Scenario.node[16].nic.mac1609_4 DroppedPacketsInMac 0
scalar Scenario.node[16].nic.mac1609_4 TooLittleTime 0
scalar Scenario.node[16].nic.mac1609_4 TimesIntoBackoff 536
scalar Scenario.node[16].nic.mac1609_4 SlotsBackoff 782
scalar Scenario.node[16].nic.mac1609_4 NumInternalContention 0
scalar Scenario.node[16].nic.mac1609_4 totalBusyTime 1.015864
scalar Scenario.node[16].nic.mac1609_4 retriesExceeded:count 0
attr recordingmode count
attr source org_car2x_veins_modules_mac_sigRetriesExceeded
scalar Scenario.node[16].nic.mac1609_4 sentAcks:count 0
attr recordingmode count
attr source org_car2x_veins_modules_mac_sigSentAck
scalar Scenario.node[16].nic.mac1609_4 sentPackets:count 536
attr recordingmode count
attr source org_car2x_veins_modules_mac_sigSentPacket
scalar Scenario.node[16].nic.mac1609_4 collisions:count 0
attr recordingmode count
attr source org_car2x_veins_modules_mac_sigCollision
scalar Scenario.node[16].nic.mac1609_4 channelBusy:timeavg 0.018988112149532
attr recordingmode timeavg
attr source org_car2x_veins_modules_mac_sigChannelBusy
par Scenario.node[16].nic typename "\"org.car2x.veins.modules.nic.Nic80211p\""
par Scenario.node[16].nic connectionManagerName "\"connectionManager\""
par Scenario.node[16].veinsmobility typename "\"org.car2x.veins.modules.mobility.traci.TraCIMobility\""
par Scenario.node[16].veinsmobility notAffectedByHostState true
par Scenario.node[16].veinsmobility x 0
par Scenario.node[16].veinsmobility y 0
par Scenario.node[16].veinsmobility z 1.895
par Scenario.node[16].veinsmobility xOrientation 1
par Scenario.node[16].veinsmobility yOrientation 0
par Scenario.node[16].veinsmobility zOrientation 0
par Scenario.node[16].veinsmobility hostPositionOffset 0m
attr unit m
par Scenario.node[16].veinsmobility setHostSpeed false
par Scenario.node[16].veinsmobility accidentCount 0
par Scenario.node[16].veinsmobility accidentStart 45.632s
attr unit s
par Scenario.node[16].veinsmobility accidentDuration "uniform(30s, 60s)"
attr unit s
par Scenario.node[16].veinsmobility accidentInterval "uniform(30s, 60s)"
attr unit s
scalar Scenario.node[16].veinsmobility startTime 16.1
scalar Scenario.node[16].veinsmobility totalTime 53.4
scalar Scenario.node[16].veinsmobility stopTime 69.6
scalar Scenario.node[16].veinsmobility minSpeed 0.00073873928757727
scalar Scenario.node[16].veinsmobility maxSpeed 14.399516172048
scalar Scenario.node[16].veinsmobility totalDistance 420.68526358665
scalar Scenario.node[16].veinsmobility totalCO2Emission 157.46316862815
par Scenario.node[16] typename "\"org.car2x.veins.nodes.Car\""
par Scenario.node[16] applType "\"TraCIDemo11p\""
par Scenario.node[16] nicType "\"Nic80211p\""
par Scenario.node[16] veinsmobilityType "\"org.car2x.veins.modules.mobility.traci.TraCIMobility\""
par Scenario.node[3].appl typename "\"org.car2x.veins.modules.application.traci.TraCIDemo11p\""
par Scenario.node[3].appl headerLength 80bit
attr unit bit
par Scenario.node[3].appl sendBeacons true
par Scenario.node[3].appl beaconLengthBits 256bit
attr unit bit
par Scenario.node[3].appl beaconUserPriority 7
par Scenario.node[3].appl beaconInterval 0.1s
attr unit s
par Scenario.node[3].appl dataLengthBits 1024bit
attr unit bit
par Scenario.node[3].appl dataOnSch false
par Scenario.node[3].appl dataUserPriority 7
par Scenario.node[3].appl avoidBeaconSynchronization true
par Scenario.node[3].appl sendWSA false
par Scenario.node[3].appl wsaLengthBits 250bit
attr unit bit
par Scenario.node[3].appl wsaInterval 1s
attr unit s
scalar Scenario.node[3].appl generatedWSMs 1
scalar Scenario.node[3].appl receivedWSMs 17
scalar Scenario.node[3].appl generatedBSMs 684
scalar Scenario.node[3].appl receivedBSMs 6810
scalar Scenario.node[3].appl generatedWSAs 0
scalar Scenario.node[3].appl receivedWSAs 0
par Scenario.node[3].nic.phy80211p typename "\"org.car2x.veins.modules.phy.PhyLayer80211p\""
par Scenario.node[3].nic.phy80211p recordStats false
par Scenario.node[3].nic.phy80211p usePropagationDelay true
par Scenario.node[3].nic.phy80211p noiseFloor -98dBm
attr unit dBm
par Scenario.node[3].nic.phy80211p useNoiseFloor true
par Scenario.node[3].nic.phy80211p antenna "<root>...</root> at content:1"
par Scenario.node[3].nic.phy80211p antennaOffsetX 0m
attr unit m
par Scenario.node[3].nic.phy80211p antennaOffsetY 0m
attr unit m
par Scenario.node[3].nic.phy80211p antennaOffsetZ 1.895m
attr unit m
par Scenario.node[3].nic.phy80211p antennaOffsetYaw 0rad
attr unit rad
par Scenario.node[3].nic.phy80211p analogueModels "<root>...</root> at /home/vagrant/spe-homework-project/Project/simulations//config_3.xml:2"
par Scenario.node[3].nic.phy80211p decider "<root>...</root> at /home/vagrant/spe-homework-project/Project/simulations//config_3.xml:2"
par Scenario.node[3].nic.phy80211p minPowerLevel -110dBm
attr unit dBm
par Scenario.node[3].nic.phy80211p timeRXToTX 0s
attr unit s
par Scenario.node[3].nic.phy80211p timeRXToSleep 0s
attr unit s
par Scenario.node[3].nic.phy80211p timeTXToRX 0s
attr unit s
par Scenario.node[3].nic.phy80211p timeTXToSleep 0s
attr unit s
par Scenario.node[3].nic.phy80211p timeSleepToRX 0s
attr unit s
par Scenario.node[3].nic.phy80211p timeSleepToTX 0s
attr unit s
par Scenario.node[3].nic.phy80211p initialRadioState 0
par Scenario.node[3].nic.phy80211p radioMinAtt 1
par Scenario.node[3].nic.phy80211p radioMaxAtt 0
par Scenario.node[3].nic.phy80211p nbRadioChannels 1
par Scenario.node[3].nic.phy80211p initialRadioChannel 0
par Scenario.node[3].nic.phy80211p ccaThreshold -65dBm
attr unit dBm
par Scenario.node[3].nic.phy80211p collectCollisionStatistics false
par Scenario.node[3].nic.phy80211p allowTxDuringRx false
scalar Scenario.node[3].nic.phy80211p busyTime 0.011908771929824
par Scenario.node[3].nic.mac1609_4 typename "\"org.car2x.veins.modules.mac.ieee80211p.Mac1609_4\""
par Scenario.node[3].nic.mac1609_4 notAffectedByHostState false
par Scenario.node[3].nic.mac1609_4 headerLength 0bit
attr unit bit
par Scenario.node[3].nic.mac1609_4 address "\"auto\""
par Scenario.node[3].nic.mac1609_4 useServiceChannel false
par Scenario.node[3].nic.mac1609_4 serviceChannel 1
par Scenario.node[3].nic.mac1609_4 bitrate 6000000bps
attr unit bps
par Scenario.node[3].nic.mac1609_4 syncOffset 0.0003s
attr unit s
par Scenario.node[3].nic.mac1609_4 txPower 20mW
attr unit mW
par Scenario.node[3].nic.mac1609_4 queueSize 0
par Scenario.node[3].nic.mac1609_4 dot11RTSThreshold 12000bit
attr unit bit
par Scenario.node[3].nic.mac1609_4 dot11ShortRetryLimit 7
par Scenario.node[3].nic.mac1609_4 dot11LongRetryLimit 4
par Scenario.node[3].nic.mac1609_4 ackLength 112bit
attr unit bit
par Scenario.node[3].nic.mac1609_4 useAcks false
par Scenario.node[3].nic.mac1609_4 frameErrorRate 0
par Scenario.node[3].nic.mac1609_4 ackErrorRate 0
scalar Scenario.node[3].nic.mac1609_4 ReceivedUnicastPackets 0
scalar Scenario.node[3].nic.mac1609_4 ReceivedBroadcasts 6827
scalar Scenario.node[3].nic.mac1609_4 SentPackets 685
scalar Scenario.node[3].nic.mac1609_4 SentAcknowledgements 0
scalar Scenario.node[3].nic.mac1609_4 RetriesExceeded 0
scalar Scenario.node[3].nic.mac1609_4 SNIRLostPackets 977
scalar Scenario.node[3].nic.mac1609_4 RXTXLostPackets 0
scalar Scenario.node[3].nic.mac1609_4 TotalLostPackets 977
scalar Scenario.node[3].nic.mac1609_4 DroppedPacketsInMac 0
scalar Scenario.node[3].nic.mac1609_4 TooLittleTime 0
scalar Scenario.node[3].nic.mac1609_4 TimesIntoBackoff 685
scalar Scenario.node[3].nic.mac1609_4 SlotsBackoff 1041
scalar Scenario.node[3].nic.mac1609_4 NumInternalContention 0
scalar Scenario.node[3].nic.mac1609_4 totalBusyTime 0.882349
scalar Scenario.node[3].nic.mac1609_4 retriesExceeded:count 0
attr recordingmode count
attr source org_car2x_veins_modules_mac_sigRetriesExceeded
scalar Scenario.node[3].nic.mac1609_4 sentAcks:count 0
attr recordingmode count
attr source org_car2x_veins_modules_mac_sigSentAck
scalar Scenario.node[3].nic.mac1609_4 sentPackets:count 685
attr recordingmode count
attr source org_car2x_veins_modules_mac_sigSentPacket
scalar Scenario.node[3].nic.mac1609_4 collisions:count 0
attr recordingmode count
attr source org_car2x_veins_modules_mac_sigCollision
scalar Scenario.node[3].nic.mac1609_4 channelBusy:timeavg 0.012899839181286
attr recordingmode timeavg
attr source org_car2x_veins_modules_mac_sigChannelBusy
par Scenario.node[3].nic typename "\"org.car2x.veins.modules.nic.Nic80211p\""
par Scenario.node[3].nic connectionManagerName "\"connectionManager\""
par Scenario.node[3].veinsmobility typename "\"org.car2x.veins.modules.mobility.traci.TraCIMobility\""
par Scenario.node[3].veinsmobility notAffectedByHostState true
par Scenario.node[3].veinsmobility x 0
par Scenario.node[3].veinsmobility y 0
par Scenario.node[3].veinsmobility z 1.895
par Scenario.node[3].veinsmobility xOrientation 1
par Scenario.node[3].veinsmobility yOrientation 0
par Scenario.node[3].veinsmobility zOrientation 0
par Scenario.node[3].veinsmobility hostPositionOffset 0m
attr unit m
par Scenario.node[3].veinsmobility setHostSpeed false
par Scenario.node[3].veinsmobility accidentCount 0
par Scenario.node[3].veinsmobility accidentStart 56.5739s
attr unit s
par Scenario.node[3].veinsmobility accidentDuration "uniform(30s, 60s)"
attr unit s
par Scenario.node[3].veinsmobility accidentInterval "uniform(30s, 60s)"
attr unit s
scalar Scenario.node[3].veinsmobility startTime 3.1
scalar Scenario.node[3].veinsmobility totalTime 68.3
scalar Scenario.node[3].veinsmobility stopTime 71.5
scalar Scenario.node[3].veinsmobility minSpeed 0.24772154413094
scalar Scenario.node[3].veinsmobility maxSpeed 13.374212494351
scalar Scenario.node[3].veinsmobility totalDistance 736.78502694158
scalar Scenario.node[3].veinsmobility totalCO2Emission 206.38703200946
par Scenario.node[3] typename "\"org.car2x.veins.nodes.Car\""
par Scenario.node[3] applType "\"TraCIDemo11p\""
par Scenario.node[3] nicType "\"Nic80211p\""
par Scenario.node[3] veinsmobilityType "\"org.car2x.veins.modules.mobility.traci.TraCIMobility\""
par Scenario.node[19].appl typename "\"org.car2x.veins.modules.application.traci.TraCIDemo11p\""
par Scenario.node[19].appl headerLength 80bit
attr unit bit
par Scenario.node[19].appl sendBeacons true
par Scenario.node[19].appl beaconLengthBits 256bit
attr unit bit
par Scenario.node[19].appl beaconUserPriority 7
par Scenario.node[19].appl beaconInterval 0.1s
attr unit s
par Scenario.node[19].appl dataLengthBits 1024bit
attr unit bit
par Scenario.node[19].appl dataOnSch false
par Scenario.node[19].appl dataUserPriority 7
par Scenario.node[19].appl avoidBeaconSynchronization true
par Scenario.node[19].appl sendWSA false
par Scenario.node[19].appl wsaLengthBits 250bit
attr unit bit
par Scenario.node[19].appl wsaInterval 1s
attr unit s
scalar Scenario.node[19].appl generatedWSMs 1
scalar Scenario.node[19].appl receivedWSMs 14
scalar Scenario.node[19].appl generatedBSMs 526
scalar Scenario.node[19].appl receivedBSMs 7622
scalar Scenario.node[19].appl generatedWSAs 0
scalar Scenario.node[19].appl receivedWSAs 0
par Scenario.node[19].nic.phy80211p typename "\"org.car2x.veins.modules.phy.PhyLayer80211p\""
par Scenario.node[19].nic.phy80211p recordStats false
par Scenario.node[19].nic.phy80211p usePropagationDelay true
par Scenario.node[19].nic.phy80211p noiseFloor -98dBm
attr unit dBm
par Scenario.node[19].nic.phy80211p useNoiseFloor true
par Scenario.node[19].nic.phy80211p antenna "<root>...</root> at content:1"
par Scenario.node[19].nic.phy80211p antennaOffsetX 0m
attr unit m
par Scenario.node[19].nic.phy80211p antennaOffsetY 0m
attr unit m
par Scenario.node[19].nic.phy80211p antennaOffsetZ 1.895m
attr unit m
par Scenario.node[19].nic.phy80211p antennaOffsetYaw 0rad
attr unit rad
par Scenario.node[19].nic.phy80211p analogueModels "<root>...</root> at /home/vagrant/spe-homework-project/Project/simulations//config_3.xml:2"
par Scenario.node[19].nic.phy80211p decider "<root>...</root> at /home/vagrant/spe-homework-project/Project/simulations//config_3.xml:2"
par Scenario.node[19].nic.phy80211p minPowerLevel -110dBm
attr unit dBm
par Scenario.node[19].nic.phy80211p timeRXToTX 0s
attr unit s
par Scenario.node[19].nic.phy80211p timeRXToSleep 0s
attr unit s
par Scenario.node[19].nic.phy80211p timeTXToRX 0s
attr unit s
par Scenario.node[19].nic.phy80211p timeTXToSleep 0s
attr unit s
par Scenario.node[19].nic.phy80211p timeSleepToRX 0s
attr unit s
par Scenario.node[19].nic.phy80211p timeSleepToTX 0s
attr unit s
par Scenario.node[19].nic.phy80211p initialRadioState 0
par Scenario.node[19].nic.phy80211p radioMinAtt 1
par Scenario.node[19].nic.phy80211p radioMaxAtt 0
par Scenario.node[19].nic.phy80211p nbRadioChannels 1
par Scenario.node[19].nic.phy80211p initialRadioChannel 0
par Scenario.node[19].nic.phy80211p ccaThreshold -65dBm
attr unit dBm
par Scenario.node[19].nic.phy80211p collectCollisionStatistics false
par Scenario.node[19].nic.phy80211p allowTxDuringRx false
scalar Scenario.node[19].nic.phy80211p busyTime 0.017716045627375
par Scenario.node[19].nic.mac1609_4 typename "\"org.car2x.veins.modules.mac.ieee80211p.Mac1609_4\""
par Scenario.node[19].nic.mac1609_4 notAffectedByHostState false
par Scenario.node[19].nic.mac1609_4 headerLength 0bit
attr unit bit
par Scenario.node[19].nic.mac1609_4 address "\"auto\""
par Scenario.node[19].nic.mac1609_4 useServiceChannel false
par Scenario.node[19].nic.mac1609_4 serviceChannel 1
par Scenario.node[19].nic.mac1609_4 bitrate 6000000bps
attr unit bps
par Scenario.node[19].nic.mac1609_4 syncOffset 0.0003s
attr unit s
par Scenario.node[19].nic.mac1609_4 txPower 20mW
attr unit mW
par Scenario.node[19].nic.mac1609_4 queueSize 0
par Scenario.node[19].nic.mac1609_4 dot11RTSThreshold 12000bit
attr unit bit
par Scenario.node[19].nic.mac1609_4 dot11ShortRetryLimit 7
par Scenario.node[19].nic.mac1609_4 dot11LongRetryLimit 4
par Scenario.node[19].nic.mac1609_4 ackLength 112bit
attr unit bit
par Scenario.node[19].nic.mac1609_4 useAcks false
par Scenario.node[19].nic.mac1609_4 frameErrorRate 0
par Scenario.node[19].nic.mac1609_4 ackErrorRate 0
scalar Scenario.node[19].nic.mac1609_4 ReceivedUnicastPackets 0
scalar Scenario.node[19].nic.mac1609_4 ReceivedBroadcasts 7636
scalar Scenario.node[19].nic.mac1609_4 SentPackets 527
scalar Scenario.node[19].nic.mac1609_4 SentAcknowledgements 0
scalar Scenario.node[19].nic.mac1609_4 RetriesExceeded 0
scalar Scenario.node[19].nic.mac1609_4 SNIRLostPackets 1307
scalar Scenario.node[19].nic.mac1609_4 RXTXLostPackets 0
scalar Scenario.node[19].nic.mac1609_4 TotalLostPackets 1307
scalar Scenario.node[19].nic.mac1609_4 DroppedPacketsInMac 0
scalar Scenario.node[19].nic.mac1609_4 TooLittleTime 0
scalar Scenario.node[19].nic.mac1609_4 TimesIntoBackoff 528
scalar Scenario.node[19].nic.mac1609_4 SlotsBackoff 782
scalar Scenario.node[19].nic.mac1609_4 NumInternalContention 0
scalar Scenario.node[19].nic.mac1609_4 totalBusyTime 0.980879
scalar Scenario.node[19].nic.mac1609_4 retriesExceeded:count 0
attr recordingmode count
attr source org_car2x_veins_modules_mac_sigRetriesExceeded
scalar Scenario.node[19].nic.mac1609_4 sentAcks:count 0
attr recordingmode count
attr source org_car2x_veins_modules_mac_sigSentAck
scalar Scenario.node[19].nic.mac1609_4 sentPackets:count 527
attr recordingmode count
attr source org_car2x_veins_modules_mac_sigSentPacket
scalar Scenario.node[19].nic.mac1609_4 collisions:count 0
attr recordingmode count
attr source org_car2x_veins_modules_mac_sigCollision
scalar Scenario.node[19].nic.mac1609_4 channelBusy:timeavg 0.018647889733839
attr recordingmode timeavg
attr source org_car2x_veins_modules_mac_sigChannelBusy
par Scenario.node[19].nic typename "\"org.car2x.veins.modules.nic.Nic80211p\""
[...]
attr unit dBm
par Scenario.node[94].nic.phy80211p timeRXToTX 0s
attr unit s
par Scenario.node[94].nic.phy80211p timeRXToSleep 0s
attr unit s
par Scenario.node[94].nic.phy80211p timeTXToRX 0s
attr unit s
par Scenario.node[94].nic.phy80211p timeTXToSleep 0s
attr unit s
par Scenario.node[94].nic.phy80211p timeSleepToRX 0s
attr unit s
par Scenario.node[94].nic.phy80211p timeSleepToTX 0s
attr unit s
par Scenario.node[94].nic.phy80211p initialRadioState 0
par Scenario.node[94].nic.phy80211p radioMinAtt 1
par Scenario.node[94].nic.phy80211p radioMaxAtt 0
par Scenario.node[94].nic.phy80211p nbRadioChannels 1
par Scenario.node[94].nic.phy80211p initialRadioChannel 0
par Scenario.node[94].nic.phy80211p ccaThreshold -65dBm
attr unit dBm
par Scenario.node[94].nic.phy80211p collectCollisionStatistics false
par Scenario.node[94].nic.phy80211p allowTxDuringRx false
scalar Scenario.node[94].nic.phy80211p busyTime 0.050206315789475
par Scenario.node[94].nic.mac1609_4 typename "\"org.car2x.veins.modules.mac.ieee80211p.Mac1609_4\""
par Scenario.node[94].nic.mac1609_4 notAffectedByHostState false
par Scenario.node[94].nic.mac1609_4 headerLength 0bit
attr unit bit
par Scenario.node[94].nic.mac1609_4 address "\"auto\""
par Scenario.node[94].nic.mac1609_4 useServiceChannel false
par Scenario.node[94].nic.mac1609_4 serviceChannel 1
par Scenario.node[94].nic.mac1609_4 bitrate 6000000bps
attr unit bps
par Scenario.node[94].nic.mac1609_4 syncOffset 0.0003s
attr unit s
par Scenario.node[94].nic.mac1609_4 txPower 20mW
attr unit mW
par Scenario.node[94].nic.mac1609_4 queueSize 0
par Scenario.node[94].nic.mac1609_4 dot11RTSThreshold 12000bit
attr unit bit
par Scenario.node[94].nic.mac1609_4 dot11ShortRetryLimit 7
par Scenario.node[94].nic.mac1609_4 dot11LongRetryLimit 4
par Scenario.node[94].nic.mac1609_4 ackLength 112bit
attr unit bit
par Scenario.node[94].nic.mac1609_4 useAcks false
par Scenario.node[94].nic.mac1609_4 frameErrorRate 0
par Scenario.node[94].nic.mac1609_4 ackErrorRate 0
scalar Scenario.node[94].nic.mac1609_4 ReceivedUnicastPackets 0
scalar Scenario.node[94].nic.mac1609_4 ReceivedBroadcasts 854
scalar Scenario.node[94].nic.mac1609_4 SentPackets 19
scalar Scenario.node[94].nic.mac1609_4 SentAcknowledgements 0
scalar Scenario.node[94].nic.mac1609_4 RetriesExceeded 0
scalar Scenario.node[94].nic.mac1609_4 SNIRLostPackets 62
scalar Scenario.node[94].nic.mac1609_4 RXTXLostPackets 0
scalar Scenario.node[94].nic.mac1609_4 TotalLostPackets 62
scalar Scenario.node[94].nic.mac1609_4 DroppedPacketsInMac 0
scalar Scenario.node[94].nic.mac1609_4 TooLittleTime 0
scalar Scenario.node[94].nic.mac1609_4 TimesIntoBackoff 19
scalar Scenario.node[94].nic.mac1609_4 SlotsBackoff 34
scalar Scenario.node[94].nic.mac1609_4 NumInternalContention 0
scalar Scenario.node[94].nic.mac1609_4 totalBusyTime 0.097387
scalar Scenario.node[94].nic.mac1609_4 retriesExceeded:count 0
attr recordingmode count
attr source org_car2x_veins_modules_mac_sigRetriesExceeded
scalar Scenario.node[94].nic.mac1609_4 sentAcks:count 0
attr recordingmode count
attr source org_car2x_veins_modules_mac_sigSentAck
scalar Scenario.node[94].nic.mac1609_4 sentPackets:count 19
attr recordingmode count
attr source org_car2x_veins_modules_mac_sigSentPacket
scalar Scenario.node[94].nic.mac1609_4 collisions:count 0
attr recordingmode count
attr source org_car2x_veins_modules_mac_sigCollision
scalar Scenario.node[94].nic.mac1609_4 channelBusy:timeavg 0.051256315789475
attr recordingmode timeavg
attr source org_car2x_veins_modules_mac_sigChannelBusy
par Scenario.node[94].nic typename "\"org.car2x.veins.modules.nic.Nic80211p\""
par Scenario.node[94].nic connectionManagerName "\"connectionManager\""
par Scenario.node[94].veinsmobility typename "\"org.car2x.veins.modules.mobility.traci.TraCIMobility\""
par Scenario.node[94].veinsmobility notAffectedByHostState true
par Scenario.node[94].veinsmobility x 0
par Scenario.node[94].veinsmobility y 0
par Scenario.node[94].veinsmobility z 1.895
par Scenario.node[94].veinsmobility xOrientation 1
par Scenario.node[94].veinsmobility yOrientation 0
par Scenario.node[94].veinsmobility zOrientation 0
par Scenario.node[94].veinsmobility hostPositionOffset 0m
attr unit m
par Scenario.node[94].veinsmobility setHostSpeed false
par Scenario.node[94].veinsmobility accidentCount 0
par Scenario.node[94].veinsmobility accidentStart 39.1935s
attr unit s
par Scenario.node[94].veinsmobility accidentDuration "uniform(30s, 60s)"
attr unit s
par Scenario.node[94].veinsmobility accidentInterval "uniform(30s, 60s)"
attr unit s
scalar Scenario.node[94].veinsmobility startTime 98.1
scalar Scenario.node[94].veinsmobility totalTime 1.9
scalar Scenario.node[94].veinsmobility stopTime 100
scalar Scenario.node[94].veinsmobility minSpeed 0.25183228189568
scalar Scenario.node[94].veinsmobility maxSpeed 3.9679204084618
scalar Scenario.node[94].veinsmobility totalDistance 4.1865263171597
scalar Scenario.node[94].veinsmobility totalCO2Emission 4.1875124210578
par Scenario.node[94] typename "\"org.car2x.veins.nodes.Car\""
par Scenario.node[94] applType "\"TraCIDemo11p\""
par Scenario.node[94] nicType "\"Nic80211p\""
par Scenario.node[94] veinsmobilityType "\"org.car2x.veins.modules.mobility.traci.TraCIMobility\""
par Scenario.node[95].appl typename "\"org.car2x.veins.modules.application.traci.TraCIDemo11p\""
par Scenario.node[95].appl headerLength 80bit
attr unit bit
par Scenario.node[95].appl sendBeacons true
par Scenario.node[95].appl beaconLengthBits 256bit
attr unit bit
par Scenario.node[95].appl beaconUserPriority 7
par Scenario.node[95].appl beaconInterval 0.1s
attr unit s
par Scenario.node[95].appl dataLengthBits 1024bit
attr unit bit
par Scenario.node[95].appl dataOnSch false
par Scenario.node[95].appl dataUserPriority 7
par Scenario.node[95].appl avoidBeaconSynchronization true
par Scenario.node[95].appl sendWSA false
par Scenario.node[95].appl wsaLengthBits 250bit
attr unit bit
par Scenario.node[95].appl wsaInterval 1s
attr unit s
scalar Scenario.node[95].appl generatedWSMs 0
scalar Scenario.node[95].appl receivedWSMs 0
scalar Scenario.node[95].appl generatedBSMs 14
scalar Scenario.node[95].appl receivedBSMs 429
scalar Scenario.node[95].appl generatedWSAs 0
scalar Scenario.node[95].appl receivedWSAs 0
par Scenario.node[95].nic.phy80211p typename "\"org.car2x.veins.modules.phy.PhyLayer80211p\""
par Scenario.node[95].nic.phy80211p recordStats false
par Scenario.node[95].nic.phy80211p usePropagationDelay true
par Scenario.node[95].nic.phy80211p noiseFloor -98dBm
attr unit dBm
par Scenario.node[95].nic.phy80211p useNoiseFloor true
par Scenario.node[95].nic.phy80211p antenna "<root>...</root> at content:1"
par Scenario.node[95].nic.phy80211p antennaOffsetX 0m
attr unit m
par Scenario.node[95].nic.phy80211p antennaOffsetY 0m
attr unit m
par Scenario.node[95].nic.phy80211p antennaOffsetZ 1.895m
attr unit m
par Scenario.node[95].nic.phy80211p antennaOffsetYaw 0rad
attr unit rad
par Scenario.node[95].nic.phy80211p analogueModels "<root>...</root> at /home/vagrant/spe-homework-project/Project/simulations//config_3.xml:2"
par Scenario.node[95].nic.phy80211p decider "<root>...</root> at /home/vagrant/spe-homework-project/Project/simulations//config_3.xml:2"
par Scenario.node[95].nic.phy80211p minPowerLevel -110dBm
attr unit dBm
par Scenario.node[95].nic.phy80211p timeRXToTX 0s
attr unit s
par Scenario.node[95].nic.phy80211p timeRXToSleep 0s
attr unit s
par Scenario.node[95].nic.phy80211p timeTXToRX 0s
attr unit s
par Scenario.node[95].nic.phy80211p timeTXToSleep 0s
attr unit s
par Scenario.node[95].nic.phy80211p timeSleepToRX 0s
attr unit s
par Scenario.node[95].nic.phy80211p timeSleepToTX 0s
attr unit s
par Scenario.node[95].nic.phy80211p initialRadioState 0
par Scenario.node[95].nic.phy80211p radioMinAtt 1
par Scenario.node[95].nic.phy80211p radioMaxAtt 0
par Scenario.node[95].nic.phy80211p nbRadioChannels 1
par Scenario.node[95].nic.phy80211p initialRadioChannel 0
par Scenario.node[95].nic.phy80211p ccaThreshold -65dBm
attr unit dBm
par Scenario.node[95].nic.phy80211p collectCollisionStatistics false
par Scenario.node[95].nic.phy80211p allowTxDuringRx false
scalar Scenario.node[95].nic.phy80211p busyTime 0.033874285714286
par Scenario.node[95].nic.mac1609_4 typename "\"org.car2x.veins.modules.mac.ieee80211p.Mac1609_4\""
par Scenario.node[95].nic.mac1609_4 notAffectedByHostState false
par Scenario.node[95].nic.mac1609_4 headerLength 0bit
attr unit bit
par Scenario.node[95].nic.mac1609_4 address "\"auto\""
par Scenario.node[95].nic.mac1609_4 useServiceChannel false
par Scenario.node[95].nic.mac1609_4 serviceChannel 1
par Scenario.node[95].nic.mac1609_4 bitrate 6000000bps
attr unit bps
par Scenario.node[95].nic.mac1609_4 syncOffset 0.0003s
attr unit s
par Scenario.node[95].nic.mac1609_4 txPower 20mW
attr unit mW
par Scenario.node[95].nic.mac1609_4 queueSize 0
par Scenario.node[95].nic.mac1609_4 dot11RTSThreshold 12000bit
attr unit bit
par Scenario.node[95].nic.mac1609_4 dot11ShortRetryLimit 7
par Scenario.node[95].nic.mac1609_4 dot11LongRetryLimit 4
par Scenario.node[95].nic.mac1609_4 ackLength 112bit
attr unit bit
par Scenario.node[95].nic.mac1609_4 useAcks false
par Scenario.node[95].nic.mac1609_4 frameErrorRate 0
par Scenario.node[95].nic.mac1609_4 ackErrorRate 0
scalar Scenario.node[95].nic.mac1609_4 ReceivedUnicastPackets 0
scalar Scenario.node[95].nic.mac1609_4 ReceivedBroadcasts 429
scalar Scenario.node[95].nic.mac1609_4 SentPackets 14
scalar Scenario.node[95].nic.mac1609_4 SentAcknowledgements 0
scalar Scenario.node[95].nic.mac1609_4 RetriesExceeded 0
scalar Scenario.node[95].nic.mac1609_4 SNIRLostPackets 27
scalar Scenario.node[95].nic.mac1609_4 RXTXLostPackets 0
scalar Scenario.node[95].nic.mac1609_4 TotalLostPackets 27
scalar Scenario.node[95].nic.mac1609_4 DroppedPacketsInMac 0
scalar Scenario.node[95].nic.mac1609_4 TooLittleTime 0
scalar Scenario.node[95].nic.mac1609_4 TimesIntoBackoff 14
scalar Scenario.node[95].nic.mac1609_4 SlotsBackoff 15
scalar Scenario.node[95].nic.mac1609_4 NumInternalContention 0
scalar Scenario.node[95].nic.mac1609_4 totalBusyTime 0.048374
scalar Scenario.node[95].nic.mac1609_4 retriesExceeded:count 0
attr recordingmode count
attr source org_car2x_veins_modules_mac_sigRetriesExceeded
scalar Scenario.node[95].nic.mac1609_4 sentAcks:count 0
attr recordingmode count
attr source org_car2x_veins_modules_mac_sigSentAck
scalar Scenario.node[95].nic.mac1609_4 sentPackets:count 14
attr recordingmode count
attr source org_car2x_veins_modules_mac_sigSentPacket
scalar Scenario.node[95].nic.mac1609_4 collisions:count 0
attr recordingmode count
attr source org_car2x_veins_modules_mac_sigCollision
scalar Scenario.node[95].nic.mac1609_4 channelBusy:timeavg 0.034552857142857
attr recordingmode timeavg
attr source org_car2x_veins_modules_mac_sigChannelBusy
par Scenario.node[95].nic typename "\"org.car2x.veins.modules.nic.Nic80211p\""
par Scenario.node[95].nic connectionManagerName "\"connectionManager\""
par Scenario.node[95].veinsmobility typename "\"org.car2x.veins.modules.mobility.traci.TraCIMobility\""
par Scenario.node[95].veinsmobility notAffectedByHostState true
par Scenario.node[95].veinsmobility x 0
par Scenario.node[95].veinsmobility y 0
par Scenario.node[95].veinsmobility z 1.895
par Scenario.node[95].veinsmobility xOrientation 1
par Scenario.node[95].veinsmobility yOrientation 0
par Scenario.node[95].veinsmobility zOrientation 0
par Scenario.node[95].veinsmobility hostPositionOffset 0m
attr unit m
par Scenario.node[95].veinsmobility setHostSpeed false
par Scenario.node[95].veinsmobility accidentCount 0
par Scenario.node[95].veinsmobility accidentStart 30.7647s
attr unit s
par Scenario.node[95].veinsmobility accidentDuration "uniform(30s, 60s)"
attr unit s
par Scenario.node[95].veinsmobility accidentInterval "uniform(30s, 60s)"
attr unit s
scalar Scenario.node[95].veinsmobility startTime 98.6
scalar Scenario.node[95].veinsmobility totalTime 1.4
scalar Scenario.node[95].veinsmobility stopTime 100
scalar Scenario.node[95].veinsmobility minSpeed 0.25599460815755
scalar Scenario.node[95].veinsmobility maxSpeed 3.2138033947271
scalar Scenario.node[95].veinsmobility totalDistance 2.439716107366
scalar Scenario.node[95].veinsmobility totalCO2Emission 2.8798165967524
par Scenario.node[95] typename "\"org.car2x.veins.nodes.Car\""
par Scenario.node[95] applType "\"TraCIDemo11p\""
par Scenario.node[95] nicType "\"Nic80211p\""
par Scenario.node[95] veinsmobilityType "\"org.car2x.veins.modules.mobility.traci.TraCIMobility\""
par Scenario.node[96].appl typename "\"org.car2x.veins.modules.application.traci.TraCIDemo11p\""
par Scenario.node[96].appl headerLength 80bit
attr unit bit
par Scenario.node[96].appl sendBeacons true
par Scenario.node[96].appl beaconLengthBits 256bit
attr unit bit
par Scenario.node[96].appl beaconUserPriority 7
par Scenario.node[96].appl beaconInterval 0.1s
attr unit s
par Scenario.node[96].appl dataLengthBits 1024bit
attr unit bit
par Scenario.node[96].appl dataOnSch false
par Scenario.node[96].appl dataUserPriority 7
par Scenario.node[96].appl avoidBeaconSynchronization true
par Scenario.node[96].appl sendWSA false
par Scenario.node[96].appl wsaLengthBits 250bit
attr unit bit
par Scenario.node[96].appl wsaInterval 1s
attr unit s
scalar Scenario.node[96].appl generatedWSMs 0
scalar Scenario.node[96].appl receivedWSMs 0
scalar Scenario.node[96].appl generatedBSMs 11
scalar Scenario.node[96].appl receivedBSMs 372
scalar Scenario.node[96].appl generatedWSAs 0
scalar Scenario.node[96].appl receivedWSAs 0
par Scenario.node[96].nic.phy80211p typename "\"org.car2x.veins.modules.phy.PhyLayer80211p\""
par Scenario.node[96].nic.phy80211p recordStats false
par Scenario.node[96].nic.phy80211p usePropagationDelay true
par Scenario.node[96].nic.phy80211p noiseFloor -98dBm
attr unit dBm
par Scenario.node[96].nic.phy80211p useNoiseFloor true
par Scenario.node[96].nic.phy80211p antenna "<root>...</root> at content:1"
par Scenario.node[96].nic.phy80211p antennaOffsetX 0m
attr unit m
par Scenario.node[96].nic.phy80211p antennaOffsetY 0m
attr unit m
par Scenario.node[96].nic.phy80211p antennaOffsetZ 1.895m
attr unit m
par Scenario.node[96].nic.phy80211p antennaOffsetYaw 0rad
attr unit rad
par Scenario.node[96].nic.phy80211p analogueModels "<root>...</root> at /home/vagrant/spe-homework-project/Project/simulations//config_3.xml:2"
par Scenario.node[96].nic.phy80211p decider "<root>...</root> at /home/vagrant/spe-homework-project/Project/simulations//config_3.xml:2"
par Scenario.node[96].nic.phy80211p minPowerLevel -110dBm
attr unit dBm
par Scenario.node[96].nic.phy80211p timeRXToTX 0s
attr unit s
par Scenario.node[96].nic.phy80211p timeRXToSleep 0s
attr unit s
par Scenario.node[96].nic.phy80211p timeTXToRX 0s
attr unit s
par Scenario.node[96].nic.phy80211p timeTXToSleep 0s
attr unit s
par Scenario.node[96].nic.phy80211p timeSleepToRX 0s
attr unit s
par Scenario.node[96].nic.phy80211p timeSleepToTX 0s
attr unit s
par Scenario.node[96].nic.phy80211p initialRadioState 0
par Scenario.node[96].nic.phy80211p radioMinAtt 1
par Scenario.node[96].nic.phy80211p radioMaxAtt 0
par Scenario.node[96].nic.phy80211p nbRadioChannels 1
par Scenario.node[96].nic.phy80211p initialRadioChannel 0
par Scenario.node[96].nic.phy80211p ccaThreshold -65dBm
attr unit dBm
par Scenario.node[96].nic.phy80211p collectCollisionStatistics false
par Scenario.node[96].nic.phy80211p allowTxDuringRx false
scalar Scenario.node[96].nic.phy80211p busyTime 0.036494545454545
par Scenario.node[96].nic.mac1609_4 typename "\"org.car2x.veins.modules.mac.ieee80211p.Mac1609_4\""
par Scenario.node[96].nic.mac1609_4 notAffectedByHostState false
par Scenario.node[96].nic.mac1609_4 headerLength 0bit
attr unit bit
par Scenario.node[96].nic.mac1609_4 address "\"auto\""
par Scenario.node[96].nic.mac1609_4 useServiceChannel false
par Scenario.node[96].nic.mac1609_4 serviceChannel 1
par Scenario.node[96].nic.mac1609_4 bitrate 6000000bps
attr unit bps
par Scenario.node[96].nic.mac1609_4 syncOffset 0.0003s
attr unit s
par Scenario.node[96].nic.mac1609_4 txPower 20mW
attr unit mW
par Scenario.node[96].nic.mac1609_4 queueSize 0
par Scenario.node[96].nic.mac1609_4 dot11RTSThreshold 12000bit
attr unit bit
par Scenario.node[96].nic.mac1609_4 dot11ShortRetryLimit 7
par Scenario.node[96].nic.mac1609_4 dot11LongRetryLimit 4
par Scenario.node[96].nic.mac1609_4 ackLength 112bit
attr unit bit
par Scenario.node[96].nic.mac1609_4 useAcks false
par Scenario.node[96].nic.mac1609_4 frameErrorRate 0
par Scenario.node[96].nic.mac1609_4 ackErrorRate 0
scalar Scenario.node[96].nic.mac1609_4 ReceivedUnicastPackets 0
scalar Scenario.node[96].nic.mac1609_4 ReceivedBroadcasts 372
scalar Scenario.node[96].nic.mac1609_4 SentPackets 11
scalar Scenario.node[96].nic.mac1609_4 SentAcknowledgements 0
scalar Scenario.node[96].nic.mac1609_4 RetriesExceeded 0
scalar Scenario.node[96].nic.mac1609_4 SNIRLostPackets 14
scalar Scenario.node[96].nic.mac1609_4 RXTXLostPackets 0
scalar Scenario.node[96].nic.mac1609_4 TotalLostPackets 14
scalar Scenario.node[96].nic.mac1609_4 DroppedPacketsInMac 0
scalar Scenario.node[96].nic.mac1609_4 TooLittleTime 0
scalar Scenario.node[96].nic.mac1609_4 TimesIntoBackoff 11
scalar Scenario.node[96].nic.mac1609_4 SlotsBackoff 20
scalar Scenario.node[96].nic.mac1609_4 NumInternalContention 0
scalar Scenario.node[96].nic.mac1609_4 totalBusyTime 0.041299
scalar Scenario.node[96].nic.mac1609_4 retriesExceeded:count 0
attr recordingmode count
attr source org_car2x_veins_modules_mac_sigRetriesExceeded
scalar Scenario.node[96].nic.mac1609_4 sentAcks:count 0
attr recordingmode count
attr source org_car2x_veins_modules_mac_sigSentAck
scalar Scenario.node[96].nic.mac1609_4 sentPackets:count 11
attr recordingmode count
attr source org_car2x_veins_modules_mac_sigSentPacket
scalar Scenario.node[96].nic.mac1609_4 collisions:count 0
attr recordingmode count
attr source org_car2x_veins_modules_mac_sigCollision
scalar Scenario.node[96].nic.mac1609_4 channelBusy:timeavg 0.037544545454545
attr recordingmode timeavg
attr source org_car2x_veins_modules_mac_sigChannelBusy
par Scenario.node[96].nic typename "\"org.car2x.veins.modules.nic.Nic80211p\""
par Scenario.node[96].nic connectionManagerName "\"connectionManager\""
par Scenario.node[96].veinsmobility typename "\"org.car2x.veins.modules.mobility.traci.TraCIMobility\""
par Scenario.node[96].veinsmobility notAffectedByHostState true
par Scenario.node[96].veinsmobility x 0
par Scenario.node[96].veinsmobility y 0
par Scenario.node[96].veinsmobility z 1.895
par Scenario.node[96].veinsmobility xOrientation 1
par Scenario.node[96].veinsmobility yOrientation 0
par Scenario.node[96].veinsmobility zOrientation 0
par Scenario.node[96].veinsmobility hostPositionOffset 0m
attr unit m
par Scenario.node[96].veinsmobility setHostSpeed false
par Scenario.node[96].veinsmobility accidentCount 0
par Scenario.node[96].veinsmobility accidentStart 38.0944s
attr unit s
par Scenario.node[96].veinsmobility accidentDuration "uniform(30s, 60s)"
attr unit s
par Scenario.node[96].veinsmobility accidentInterval "uniform(30s, 60s)"
attr unit s
scalar Scenario.node[96].veinsmobility startTime 98.9
scalar Scenario.node[96].veinsmobility totalTime 1.1
scalar Scenario.node[96].veinsmobility stopTime 100
scalar Scenario.node[96].veinsmobility minSpeed 0.25042644003429
scalar Scenario.node[96].veinsmobility maxSpeed 2.354502062395
scalar Scenario.node[96].veinsmobility totalDistance 1.51176045992
scalar Scenario.node[96].veinsmobility totalCO2Emission 1.8974865946065
par Scenario.node[96] typename "\"org.car2x.veins.nodes.Car\""
par Scenario.node[96] applType "\"TraCIDemo11p\""
par Scenario.node[96] nicType "\"Nic80211p\""
par Scenario.node[96] veinsmobilityType "\"org.car2x.veins.modules.mobility.traci.TraCIMobility\""
par Scenario typename "\"org.car2x.veins.nodes.Scenario\""
par Scenario playgroundSizeX 600m
attr unit m
par Scenario playgroundSizeY 600m
attr unit m
par Scenario playgroundSizeZ 50m
attr unit m

